
     RDKit          3D

 68 67  0  0  0  0  0  0  0  0999 V2000
   11.6262    0.0981    0.5110 C   0  0  0  0  0  0  0  0  0  0  0  0
   10.3995   -0.5839   -0.0982 C   0  0  0  0  0  0  0  0  0  0  0  0
    9.1350    0.1627    0.3313 C   0  0  0  0  0  0  0  0  0  0  0  0
    7.9083   -0.5192   -0.2779 C   0  0  0  0  0  0  0  0  0  0  0  0
    6.6438    0.2274    0.1516 C   0  0  0  0  0  0  0  0  0  0  0  0
    6.6585    1.6380   -0.4406 C   0  0  0  0  0  0  0  0  0  0  0  0
    5.4611    2.4273    0.0923 C   0  0  0  0  0  0  0  0  0  0  0  0
    5.4110   -0.5250   -0.3534 C   0  0  0  0  0  0  0  0  0  0  0  0
    4.2114    0.1110    0.1612 O   0  0  0  0  0  0  0  0  0  0  0  0
    3.0352   -0.4311   -0.1914 C   0  0  0  0  0  0  0  0  0  0  0  0
    3.0088   -1.4047   -0.9064 O   0  0  0  0  0  0  0  0  0  0  0  0
    1.7475    0.1747    0.3045 C   0  0  0  0  0  0  0  0  0  0  0  0
    0.5637   -0.6277   -0.2393 C   0  0  0  0  0  0  0  0  0  0  0  0
   -0.7436   -0.0127    0.2642 C   0  0  0  0  0  0  0  0  0  0  0  0
   -1.9274   -0.8151   -0.2796 C   0  0  0  0  0  0  0  0  0  0  0  0
   -3.2151   -0.2094    0.2164 C   0  0  0  0  0  0  0  0  0  0  0  0
   -3.1887    0.7642    0.9314 O   0  0  0  0  0  0  0  0  0  0  0  0
   -4.3914   -0.7514   -0.1363 O   0  0  0  0  0  0  0  0  0  0  0  0
   -5.5910   -0.1155    0.3784 C   0  0  0  0  0  0  0  0  0  0  0  0
   -6.8238   -0.8678   -0.1266 C   0  0  0  0  0  0  0  0  0  0  0  0
   -6.8330   -2.2820    0.4573 C   0  0  0  0  0  0  0  0  0  0  0  0
   -7.9885   -3.0781   -0.1525 C   0  0  0  0  0  0  0  0  0  0  0  0
   -8.0885   -0.1268    0.3117 C   0  0  0  0  0  0  0  0  0  0  0  0
   -8.1588    1.2264   -0.3987 C   0  0  0  0  0  0  0  0  0  0  0  0
   -9.3765    2.0041    0.1047 C   0  0  0  0  0  0  0  0  0  0  0  0
   -9.4468    3.3573   -0.6058 C   0  0  0  0  0  0  0  0  0  0  0  0
   11.5474    0.0839    1.5981 H   0  0  0  0  0  0  0  0  0  0  0  0
   12.5270   -0.4338    0.2050 H   0  0  0  0  0  0  0  0  0  0  0  0
   11.6780    1.1301    0.1639 H   0  0  0  0  0  0  0  0  0  0  0  0
   10.4783   -0.5697   -1.1852 H   0  0  0  0  0  0  0  0  0  0  0  0
   10.3477   -1.6159    0.2489 H   0  0  0  0  0  0  0  0  0  0  0  0
    9.0562    0.1485    1.4184 H   0  0  0  0  0  0  0  0  0  0  0  0
    9.1868    1.1947   -0.0158 H   0  0  0  0  0  0  0  0  0  0  0  0
    7.9871   -0.5050   -1.3649 H   0  0  0  0  0  0  0  0  0  0  0  0
    7.8565   -1.5512    0.0692 H   0  0  0  0  0  0  0  0  0  0  0  0
    6.6108    0.2903    1.2393 H   0  0  0  0  0  0  0  0  0  0  0  0
    7.5819    2.1422   -0.1555 H   0  0  0  0  0  0  0  0  0  0  0  0
    6.5986    1.5766   -1.5272 H   0  0  0  0  0  0  0  0  0  0  0  0
    5.5401    3.4667   -0.2264 H   0  0  0  0  0  0  0  0  0  0  0  0
    4.5391    1.9967   -0.2983 H   0  0  0  0  0  0  0  0  0  0  0  0
    5.4509    2.3810    1.1813 H   0  0  0  0  0  0  0  0  0  0  0  0
    5.3941   -0.5046   -1.4431 H   0  0  0  0  0  0  0  0  0  0  0  0
    5.4502   -1.5587   -0.0099 H   0  0  0  0  0  0  0  0  0  0  0  0
    1.7315    0.1525    1.3942 H   0  0  0  0  0  0  0  0  0  0  0  0
    1.6754    1.2066   -0.0390 H   0  0  0  0  0  0  0  0  0  0  0  0
    0.5797   -0.6056   -1.3289 H   0  0  0  0  0  0  0  0  0  0  0  0
    0.6358   -1.6597    0.1043 H   0  0  0  0  0  0  0  0  0  0  0  0
   -0.7596   -0.0349    1.3539 H   0  0  0  0  0  0  0  0  0  0  0  0
   -0.8157    1.0192   -0.0793 H   0  0  0  0  0  0  0  0  0  0  0  0
   -1.9114   -0.7930   -1.3692 H   0  0  0  0  0  0  0  0  0  0  0  0
   -1.8553   -1.8471    0.0640 H   0  0  0  0  0  0  0  0  0  0  0  0
   -5.5740   -0.1359    1.4681 H   0  0  0  0  0  0  0  0  0  0  0  0
   -5.6301    0.9182    0.0349 H   0  0  0  0  0  0  0  0  0  0  0  0
   -6.7945   -0.9243   -1.2148 H   0  0  0  0  0  0  0  0  0  0  0  0
   -5.8894   -2.7765    0.2266 H   0  0  0  0  0  0  0  0  0  0  0  0
   -6.9599   -2.2277    1.5386 H   0  0  0  0  0  0  0  0  0  0  0  0
   -8.9267   -2.5538    0.0291 H   0  0  0  0  0  0  0  0  0  0  0  0
   -7.8318   -3.1812   -1.2263 H   0  0  0  0  0  0  0  0  0  0  0  0
   -8.0301   -4.0665    0.3051 H   0  0  0  0  0  0  0  0  0  0  0  0
   -8.9655   -0.7196    0.0518 H   0  0  0  0  0  0  0  0  0  0  0  0
   -8.0625    0.0299    1.3901 H   0  0  0  0  0  0  0  0  0  0  0  0
   -7.2526    1.7946   -0.1887 H   0  0  0  0  0  0  0  0  0  0  0  0
   -8.2477    1.0683   -1.4735 H   0  0  0  0  0  0  0  0  0  0  0  0
  -10.2827    1.4359   -0.1053 H   0  0  0  0  0  0  0  0  0  0  0  0
   -9.2877    2.1622    1.1795 H   0  0  0  0  0  0  0  0  0  0  0  0
   -9.5357    3.1992   -1.6806 H   0  0  0  0  0  0  0  0  0  0  0  0
  -10.3143    3.9113   -0.2471 H   0  0  0  0  0  0  0  0  0  0  0  0
   -8.5406    3.9254   -0.3957 H   0  0  0  0  0  0  0  0  0  0  0  0
  1  2  1  0
  1 27  1  0
  1 28  1  0
  1 29  1  0
  2  3  1  0
  2 30  1  0
  2 31  1  0
  3  4  1  0
  3 32  1  0
  3 33  1  0
  4  5  1  0
  4 34  1  0
  4 35  1  0
  5  6  1  0
  5  8  1  0
  5 36  1  0
  6  7  1  0
  6 37  1  0
  6 38  1  0
  7 39  1  0
  7 40  1  0
  7 41  1  0
  8  9  1  0
  8 42  1  0
  8 43  1  0
  9 10  1  0
 10 11  2  0
 10 12  1  0
 12 13  1  0
 12 44  1  0
 12 45  1  0
 13 14  1  0
 13 46  1  0
 13 47  1  0
 14 15  1  0
 14 48  1  0
 14 49  1  0
 15 16  1  0
 15 50  1  0
 15 51  1  0
 16 17  2  0
 16 18  1  0
 18 19  1  0
 19 20  1  0
 19 52  1  0
 19 53  1  0
 20 21  1  0
 20 23  1  0
 20 54  1  0
 21 22  1  0
 21 55  1  0
 21 56  1  0
 22 57  1  0
 22 58  1  0
 22 59  1  0
 23 24  1  0
 23 60  1  0
 23 61  1  0
 24 25  1  0
 24 62  1  0
 24 63  1  0
 25 26  1  0
 25 64  1  0
 25 65  1  0
 26 66  1  0
 26 67  1  0
 26 68  1  0
M  END
>  <molID>
mol000001

>  <CAS>
103-23-1

>  <name>
Di(2-ethylhexyl) adipate

>  <activity>
na

>  <SMILES>
CCCCC(CC)COC(=O)CCCCC(=O)OCC(CC)CCCC

>  <InChI>
InChI=1S/C22H42O4/c1-5-9-13-19(7-3)17-25-21(23)15-11-12-16-22(24)26-18-20(8-4)14-10-6-2/h19-20H,5-18H2,1-4H3

>  <AMW>
370.574

>  <InChIkey>
SAOKZLXYCUGLFA-UHFFFAOYSA-N

>  <parent_SMILES>
CCCCC(CC)COC(=O)CCCCC(=O)OCC(CC)CCCC

>  <parent_InChI>
InChI=1S/C22H42O4/c1-5-9-13-19(7-3)17-25-21(23)15-11-12-16-22(24)26-18-20(8-4)14-10-6-2/h19-20H,5-18H2,1-4H3

>  <parent_InChIkey>
SAOKZLXYCUGLFA-UHFFFAOYSA-N

>  <parent_AMW>
370.574

>  <UniChem>
15

>  <UniChem_wide>
28

>  <heavy_atoms>
26

>  <rotatable_bonds>
17

>  <aromatic_rings>
0

>  <AlogP>
6.066

>  <PSA>
52.6

>  <HBA>
4

>  <HBD>
0

>  <QED_weighted>
0.2287751828

>  <Lipinski_violations>
1

>  <RO3_pass>
0

>  <NETCHARGE>
na

>  <ABUNDANCE>
No species found

$$$$

     RDKit          3D

 27 26  0  0  0  0  0  0  0  0999 V2000
    4.1849    0.4199    0.2659 C   0  0  0  0  0  0  0  0  0  0  0  0
    3.0487   -0.4795   -0.2246 C   0  0  0  0  0  0  0  0  0  0  0  0
    1.7073    0.1005    0.2282 C   0  0  0  0  0  0  0  0  0  0  0  0
    0.5710   -0.7990   -0.2623 C   0  0  0  0  0  0  0  0  0  0  0  0
   -0.7704   -0.2189    0.1905 C   0  0  0  0  0  0  0  0  0  0  0  0
   -0.9990    1.1309   -0.4926 C   0  0  0  0  0  0  0  0  0  0  0  0
   -2.2574    1.7859    0.0805 C   0  0  0  0  0  0  0  0  0  0  0  0
   -1.8971   -1.1810   -0.1913 C   0  0  0  0  0  0  0  0  0  0  0  0
   -3.1294   -0.7152    0.3624 O   0  0  0  0  0  0  0  0  0  0  0  0
    4.0624    1.4198   -0.1504 H   0  0  0  0  0  0  0  0  0  0  0  0
    4.1614    0.4741    1.3543 H   0  0  0  0  0  0  0  0  0  0  0  0
    5.1406    0.0067   -0.0567 H   0  0  0  0  0  0  0  0  0  0  0  0
    3.0722   -0.5337   -1.3130 H   0  0  0  0  0  0  0  0  0  0  0  0
    3.1712   -1.4794    0.1917 H   0  0  0  0  0  0  0  0  0  0  0  0
    1.6837    0.1547    1.3166 H   0  0  0  0  0  0  0  0  0  0  0  0
    1.5847    1.1004   -0.1881 H   0  0  0  0  0  0  0  0  0  0  0  0
    0.5945   -0.8532   -1.3507 H   0  0  0  0  0  0  0  0  0  0  0  0
    0.6935   -1.7988    0.1540 H   0  0  0  0  0  0  0  0  0  0  0  0
   -0.7605   -0.0818    1.2718 H   0  0  0  0  0  0  0  0  0  0  0  0
   -0.1399    1.7779   -0.3155 H   0  0  0  0  0  0  0  0  0  0  0  0
   -1.1246    0.9790   -1.5646 H   0  0  0  0  0  0  0  0  0  0  0  0
   -2.1967    1.7990    1.1687 H   0  0  0  0  0  0  0  0  0  0  0  0
   -2.3367    2.8075   -0.2913 H   0  0  0  0  0  0  0  0  0  0  0  0
   -3.1352    1.2179   -0.2277 H   0  0  0  0  0  0  0  0  0  0  0  0
   -1.9817   -1.2288   -1.2770 H   0  0  0  0  0  0  0  0  0  0  0  0
   -1.6752   -2.1739    0.1999 H   0  0  0  0  0  0  0  0  0  0  0  0
   -3.8892   -1.2780    0.1600 H   0  0  0  0  0  0  0  0  0  0  0  0
  1  2  1  0
  1 10  1  0
  1 11  1  0
  1 12  1  0
  2  3  1  0
  2 13  1  0
  2 14  1  0
  3  4  1  0
  3 15  1  0
  3 16  1  0
  4  5  1  0
  4 17  1  0
  4 18  1  0
  5  6  1  0
  5  8  1  0
  5 19  1  0
  6  7  1  0
  6 20  1  0
  6 21  1  0
  7 22  1  0
  7 23  1  0
  7 24  1  0
  8  9  1  0
  8 25  1  0
  8 26  1  0
  9 27  1  0
M  END
>  <molID>
mol000002

>  <CAS>
104-76-7

>  <name>
2-Ethyl-1-hexanol

>  <activity>
positive

>  <SMILES>
CCCCC(CC)CO

>  <InChI>
InChI=1S/C8H18O/c1-3-5-6-8(4-2)7-9/h8-9H,3-7H2,1-2H3

>  <AMW>
130.231

>  <InChIkey>
YIWUKEYIRIRTPP-UHFFFAOYSA-N

>  <parent_SMILES>
CCCCC(CC)CO

>  <parent_InChI>
InChI=1S/C8H18O/c1-3-5-6-8(4-2)7-9/h8-9H,3-7H2,1-2H3

>  <parent_InChIkey>
YIWUKEYIRIRTPP-UHFFFAOYSA-N

>  <parent_AMW>
130.231

>  <UniChem>
18

>  <UniChem_wide>
471

>  <heavy_atoms>
9

>  <rotatable_bonds>
5

>  <aromatic_rings>
0

>  <AlogP>
2.1951

>  <PSA>
20.23

>  <HBA>
1

>  <HBD>
1

>  <QED_weighted>
0.6063334254

>  <Lipinski_violations>
0

>  <RO3_pass>
0

>  <NETCHARGE>
-3.798E-009

>  <ABUNDANCE>
100% at pH 7.4

$$$$

     RDKit          3D

 19 19  0  0  0  0  0  0  0  0999 V2000
    3.0692   -0.4025   -0.0141 C   0  0  0  0  0  0  0  0  0  0  0  0
    1.6010   -0.0633   -0.0029 C   0  0  0  0  0  0  0  0  0  0  0  0
    1.1983    1.2592    0.0057 C   0  0  0  0  0  0  0  0  0  0  0  0
   -0.1472    1.5729    0.0164 C   0  0  0  0  0  0  0  0  0  0  0  0
   -1.0944    0.5595    0.0180 C   0  0  0  0  0  0  0  0  0  0  0  0
   -2.4185    0.8654    0.0280 O   0  0  0  0  0  0  0  0  0  0  0  0
   -0.6877   -0.7671    0.0088 C   0  0  0  0  0  0  0  0  0  0  0  0
   -1.7141   -1.8705    0.0099 C   0  0  0  0  0  0  0  0  0  0  0  0
    0.6586   -1.0753   -0.0071 C   0  0  0  0  0  0  0  0  0  0  0  0
    3.4299   -0.4890    1.0109 H   0  0  0  0  0  0  0  0  0  0  0  0
    3.2195   -1.3491   -0.5332 H   0  0  0  0  0  0  0  0  0  0  0  0
    3.6203    0.3852   -0.5279 H   0  0  0  0  0  0  0  0  0  0  0  0
    1.9362    2.0479    0.0045 H   0  0  0  0  0  0  0  0  0  0  0  0
   -0.4612    2.6062    0.0239 H   0  0  0  0  0  0  0  0  0  0  0  0
   -2.8074    0.9580   -0.8525 H   0  0  0  0  0  0  0  0  0  0  0  0
   -1.9681   -2.1315   -1.0174 H   0  0  0  0  0  0  0  0  0  0  0  0
   -1.3066   -2.7452    0.5169 H   0  0  0  0  0  0  0  0  0  0  0  0
   -2.6098   -1.5330    0.5312 H   0  0  0  0  0  0  0  0  0  0  0  0
    0.9757   -2.1077   -0.0146 H   0  0  0  0  0  0  0  0  0  0  0  0
  1  2  1  0
  1 10  1  0
  1 11  1  0
  1 12  1  0
  2  3  2  0
  2  9  1  0
  3  4  1  0
  3 13  1  0
  4  5  2  0
  4 14  1  0
  5  6  1  0
  5  7  1  0
  6 15  1  0
  7  8  1  0
  7  9  2  0
  8 16  1  0
  8 17  1  0
  8 18  1  0
  9 19  1  0
M  END
>  <molID>
mol000003

>  <CAS>
105-67-9

>  <name>
2,4-Dimethylphenol

>  <activity>
na

>  <SMILES>
Cc1ccc(O)c(C)c1

>  <InChI>
InChI=1S/C8H10O/c1-6-3-4-8(9)7(2)5-6/h3-5,9H,1-2H3

>  <AMW>
122.167

>  <InChIkey>
KUFFULVDNCHOFZ-UHFFFAOYSA-N

>  <parent_SMILES>
Cc1ccc(O)c(C)c1

>  <parent_InChI>
InChI=1S/C8H10O/c1-6-3-4-8(9)7(2)5-6/h3-5,9H,1-2H3

>  <parent_InChIkey>
KUFFULVDNCHOFZ-UHFFFAOYSA-N

>  <parent_AMW>
122.167

>  <UniChem>
18

>  <UniChem_wide>
180

>  <heavy_atoms>
9

>  <rotatable_bonds>
0

>  <aromatic_rings>
1

>  <AlogP>
2.00904

>  <PSA>
20.23

>  <HBA>
1

>  <HBD>
1

>  <QED_weighted>
0.5605086279

>  <Lipinski_violations>
0

>  <RO3_pass>
1

>  <NETCHARGE>
-0.0007595

>  <ABUNDANCE>
99.92% at pH 7.4

$$$$

     RDKit          3D

 16 16  0  0  0  0  0  0  0  0999 V2000
    2.9120   -0.0000   -0.0146 C   0  0  0  0  0  0  0  0  0  0  0  0
    1.4050   -0.0000   -0.0025 C   0  0  0  0  0  0  0  0  0  0  0  0
    0.7149    1.1981    0.0016 C   0  0  0  0  0  0  0  0  0  0  0  0
   -0.6665    1.2008    0.0131 C   0  0  0  0  0  0  0  0  0  0  0  0
   -1.3613    0.0000    0.0201 C   0  0  0  0  0  0  0  0  0  0  0  0
   -2.7202    0.0000    0.0310 O   0  0  0  0  0  0  0  0  0  0  0  0
   -0.6665   -1.2008    0.0155 C   0  0  0  0  0  0  0  0  0  0  0  0
    0.7149   -1.1981   -0.0012 C   0  0  0  0  0  0  0  0  0  0  0  0
    3.2835    0.0012    1.0102 H   0  0  0  0  0  0  0  0  0  0  0  0
    3.2712   -0.8906   -0.5302 H   0  0  0  0  0  0  0  0  0  0  0  0
    3.2712    0.8893   -0.5323 H   0  0  0  0  0  0  0  0  0  0  0  0
    1.2563    2.1326   -0.0039 H   0  0  0  0  0  0  0  0  0  0  0  0
   -1.2051    2.1369    0.0170 H   0  0  0  0  0  0  0  0  0  0  0  0
   -3.1206   -0.0010   -0.8493 H   0  0  0  0  0  0  0  0  0  0  0  0
   -1.2051   -2.1369    0.0213 H   0  0  0  0  0  0  0  0  0  0  0  0
    1.2562   -2.1326   -0.0052 H   0  0  0  0  0  0  0  0  0  0  0  0
  1  2  1  0
  1  9  1  0
  1 10  1  0
  1 11  1  0
  2  3  2  0
  2  8  1  0
  3  4  1  0
  3 12  1  0
  4  5  2  0
  4 13  1  0
  5  6  1  0
  5  7  1  0
  6 14  1  0
  7  8  2  0
  7 15  1  0
  8 16  1  0
M  END
>  <molID>
mol000004

>  <CAS>
106-44-5

>  <name>
p-Cresol

>  <activity>
na

>  <SMILES>
Cc1ccc(O)cc1

>  <InChI>
InChI=1S/C7H8O/c1-6-2-4-7(8)5-3-6/h2-5,8H,1H3

>  <AMW>
108.14

>  <InChIkey>
IWDCLRJOBJJRNH-UHFFFAOYSA-N

>  <parent_SMILES>
Cc1ccc(O)cc1

>  <parent_InChI>
InChI=1S/C7H8O/c1-6-2-4-7(8)5-3-6/h2-5,8H,1H3

>  <parent_InChIkey>
IWDCLRJOBJJRNH-UHFFFAOYSA-N

>  <parent_AMW>
108.14

>  <UniChem>
24

>  <UniChem_wide>
24

>  <heavy_atoms>
8

>  <rotatable_bonds>
0

>  <aromatic_rings>
1

>  <AlogP>
1.70062

>  <PSA>
20.23

>  <HBA>
1

>  <HBD>
1

>  <QED_weighted>
0.5401931215

>  <Lipinski_violations>
0

>  <RO3_pass>
1

>  <NETCHARGE>
-0.001515

>  <ABUNDANCE>
99.85% at pH 7.4

$$$$

     RDKit          3D

 14 14  0  0  0  0  0  0  0  0999 V2000
    2.3774   -0.9664   -0.0409 O   0  0  0  0  0  0  0  0  0  0  0  0
    1.1998   -0.2886   -0.0205 C   0  0  0  0  0  0  0  0  0  0  0  0
    1.1971    1.0991   -0.0214 C   0  0  0  0  0  0  0  0  0  0  0  0
    0.0000    1.7889   -0.0006 C   0  0  0  0  0  0  0  0  0  0  0  0
   -1.1971    1.0992    0.0214 C   0  0  0  0  0  0  0  0  0  0  0  0
   -1.1997   -0.2886    0.0224 C   0  0  0  0  0  0  0  0  0  0  0  0
   -2.3774   -0.9663    0.0436 O   0  0  0  0  0  0  0  0  0  0  0  0
   -0.0001   -0.9829   -0.0047 C   0  0  0  0  0  0  0  0  0  0  0  0
    2.7339   -1.1621    0.8365 H   0  0  0  0  0  0  0  0  0  0  0  0
    2.1315    1.6404   -0.0379 H   0  0  0  0  0  0  0  0  0  0  0  0
    0.0000    2.8689   -0.0013 H   0  0  0  0  0  0  0  0  0  0  0  0
   -2.1315    1.6405    0.0383 H   0  0  0  0  0  0  0  0  0  0  0  0
   -2.7339   -1.1631   -0.8335 H   0  0  0  0  0  0  0  0  0  0  0  0
   -0.0001   -2.0629   -0.0040 H   0  0  0  0  0  0  0  0  0  0  0  0
  1  2  1  0
  1  9  1  0
  2  3  2  0
  2  8  1  0
  3  4  1  0
  3 10  1  0
  4  5  2  0
  4 11  1  0
  5  6  1  0
  5 12  1  0
  6  7  1  0
  6  8  2  0
  7 13  1  0
  8 14  1  0
M  END
>  <molID>
mol000005

>  <CAS>
108-46-3

>  <name>
Resorcinol

>  <activity>
na

>  <SMILES>
Oc1cccc(O)c1

>  <InChI>
InChI=1S/C6H6O2/c7-5-2-1-3-6(8)4-5/h1-4,7-8H

>  <AMW>
110.112

>  <InChIkey>
GHMLBKRAJCXXBS-UHFFFAOYSA-N

>  <parent_SMILES>
Oc1cccc(O)c1

>  <parent_InChI>
InChI=1S/C6H6O2/c7-5-2-1-3-6(8)4-5/h1-4,7-8H

>  <parent_InChIkey>
GHMLBKRAJCXXBS-UHFFFAOYSA-N

>  <parent_AMW>
110.112

>  <UniChem>
25

>  <UniChem_wide>
25

>  <heavy_atoms>
8

>  <rotatable_bonds>
0

>  <aromatic_rings>
1

>  <AlogP>
1.0978

>  <PSA>
40.46

>  <HBA>
2

>  <HBD>
2

>  <QED_weighted>
0.5314936242

>  <Lipinski_violations>
0

>  <RO3_pass>
1

>  <NETCHARGE>
-0.02234

>  <ABUNDANCE>
97.77% at pH 7.4

$$$$

     RDKit          3D

 15 15  0  0  0  0  0  0  0  0999 V2000
    2.7442   -0.0769   -0.0484 O   0  0  0  0  0  0  0  0  0  0  0  0
    1.3861   -0.0389   -0.0205 C   0  0  0  0  0  0  0  0  0  0  0  0
    0.7268    1.1811   -0.0071 C   0  0  0  0  0  0  0  0  0  0  0  0
   -0.6592    1.2199    0.0214 C   0  0  0  0  0  0  0  0  0  0  0  0
   -1.3052    2.4154    0.0349 O   0  0  0  0  0  0  0  0  0  0  0  0
   -1.3858    0.0389    0.0357 C   0  0  0  0  0  0  0  0  0  0  0  0
   -0.7265   -1.1811    0.0219 C   0  0  0  0  0  0  0  0  0  0  0  0
   -1.4385   -2.3384    0.0363 O   0  0  0  0  0  0  0  0  0  0  0  0
    0.6594   -1.2199   -0.0111 C   0  0  0  0  0  0  0  0  0  0  0  0
    3.1554   -0.0878    0.8268 H   0  0  0  0  0  0  0  0  0  0  0  0
    1.2926    2.1009   -0.0186 H   0  0  0  0  0  0  0  0  0  0  0  0
   -1.5104    2.7615   -0.8444 H   0  0  0  0  0  0  0  0  0  0  0  0
   -2.4651    0.0691    0.0579 H   0  0  0  0  0  0  0  0  0  0  0  0
   -1.6628   -2.6733   -0.8427 H   0  0  0  0  0  0  0  0  0  0  0  0
    1.1728   -2.1700   -0.0218 H   0  0  0  0  0  0  0  0  0  0  0  0
  1  2  1  0
  1 10  1  0
  2  3  2  0
  2  9  1  0
  3  4  1  0
  3 11  1  0
  4  5  1  0
  4  6  2  0
  5 12  1  0
  6  7  1  0
  6 13  1  0
  7  8  1  0
  7  9  2  0
  8 14  1  0
  9 15  1  0
M  END
>  <molID>
mol000006

>  <CAS>
108-73-6

>  <name>
1,3,5-Trihydroxybenzene

>  <activity>
na

>  <SMILES>
Oc1cc(O)cc(O)c1

>  <InChI>
InChI=1S/C6H6O3/c7-4-1-5(8)3-6(9)2-4/h1-3,7-9H

>  <AMW>
126.111

>  <InChIkey>
QCDYQQDYXPDABM-UHFFFAOYSA-N

>  <parent_SMILES>
Oc1cc(O)cc(O)c1

>  <parent_InChI>
InChI=1S/C6H6O3/c7-4-1-5(8)3-6(9)2-4/h1-3,7-9H

>  <parent_InChIkey>
QCDYQQDYXPDABM-UHFFFAOYSA-N

>  <parent_AMW>
126.111

>  <UniChem>
21

>  <UniChem_wide>
236

>  <heavy_atoms>
9

>  <rotatable_bonds>
0

>  <aromatic_rings>
1

>  <AlogP>
0.8034

>  <PSA>
60.69

>  <HBA>
3

>  <HBD>
3

>  <QED_weighted>
0.4893630434

>  <Lipinski_violations>
0

>  <RO3_pass>
0

>  <NETCHARGE>
-0.08825

>  <ABUNDANCE>
91.18% at pH 7.4

$$$$

     RDKit          3D

 13 13  0  0  0  0  0  0  0  0999 V2000
    2.2699   -0.0001   -0.0368 O   0  0  0  0  0  0  0  0  0  0  0  0
    0.9110   -0.0000   -0.0200 C   0  0  0  0  0  0  0  0  0  0  0  0
    0.2162    1.2008   -0.0126 C   0  0  0  0  0  0  0  0  0  0  0  0
   -1.1651    1.1981    0.0045 C   0  0  0  0  0  0  0  0  0  0  0  0
   -1.8553    0.0000    0.0142 C   0  0  0  0  0  0  0  0  0  0  0  0
   -1.1652   -1.1981    0.0073 C   0  0  0  0  0  0  0  0  0  0  0  0
    0.2161   -1.2008   -0.0160 C   0  0  0  0  0  0  0  0  0  0  0  0
    2.6740    0.0008    0.8417 H   0  0  0  0  0  0  0  0  0  0  0  0
    0.7548    2.1368   -0.0199 H   0  0  0  0  0  0  0  0  0  0  0  0
   -1.7065    2.1326    0.0106 H   0  0  0  0  0  0  0  0  0  0  0  0
   -2.9352    0.0000    0.0276 H   0  0  0  0  0  0  0  0  0  0  0  0
   -1.7065   -2.1326    0.0157 H   0  0  0  0  0  0  0  0  0  0  0  0
    0.7547   -2.1369   -0.0214 H   0  0  0  0  0  0  0  0  0  0  0  0
  1  2  1  0
  1  8  1  0
  2  3  2  0
  2  7  1  0
  3  4  1  0
  3  9  1  0
  4  5  2  0
  4 10  1  0
  5  6  1  0
  5 11  1  0
  6  7  2  0
  6 12  1  0
  7 13  1  0
M  END
>  <molID>
mol000007

>  <CAS>
108-95-2

>  <name>
Phenol

>  <activity>
na

>  <SMILES>
Oc1ccccc1

>  <InChI>
InChI=1S/C6H6O/c7-6-4-2-1-3-5-6/h1-5,7H

>  <AMW>
94.113

>  <InChIkey>
ISWSIDIOOBJBQZ-UHFFFAOYSA-N

>  <parent_SMILES>
Oc1ccccc1

>  <parent_InChI>
InChI=1S/C6H6O/c7-6-4-2-1-3-5-6/h1-5,7H

>  <parent_InChIkey>
ISWSIDIOOBJBQZ-UHFFFAOYSA-N

>  <parent_AMW>
94.113

>  <UniChem>
41

>  <UniChem_wide>
608

>  <heavy_atoms>
7

>  <rotatable_bonds>
0

>  <aromatic_rings>
1

>  <AlogP>
1.3922

>  <PSA>
20.23

>  <HBA>
1

>  <HBD>
1

>  <QED_weighted>
0.520167461

>  <Lipinski_violations>
0

>  <RO3_pass>
1

>  <NETCHARGE>
-0.00537

>  <ABUNDANCE>
99.46% at pH 7.4

$$$$

     RDKit          3D

 22 21  0  0  0  0  0  0  0  0999 V2000
    3.4623    0.6301   -0.0003 C   0  0  0  0  0  0  0  0  0  0  0  0
    2.2430   -0.2941    0.0001 C   0  0  0  0  0  0  0  0  0  0  0  0
    0.9652    0.5473   -0.0002 C   0  0  0  0  0  0  0  0  0  0  0  0
   -0.2541   -0.3769    0.0002 C   0  0  0  0  0  0  0  0  0  0  0  0
   -0.2248   -1.2603   -1.2487 C   0  0  0  0  0  0  0  0  0  0  0  0
   -0.2248   -1.2592    1.2498 C   0  0  0  0  0  0  0  0  0  0  0  0
   -1.5127    0.4519   -0.0002 C   0  0  0  0  0  0  0  0  0  0  0  0
   -1.4418    1.6581   -0.0007 O   0  0  0  0  0  0  0  0  0  0  0  0
   -2.7126   -0.1499    0.0001 O   0  0  0  0  0  0  0  0  0  0  0  0
    3.4414    1.2595    0.8894 H   0  0  0  0  0  0  0  0  0  0  0  0
    4.3726    0.0307   -0.0000 H   0  0  0  0  0  0  0  0  0  0  0  0
    3.4414    1.2587   -0.8905 H   0  0  0  0  0  0  0  0  0  0  0  0
    2.2639   -0.9235   -0.8896 H   0  0  0  0  0  0  0  0  0  0  0  0
    2.2639   -0.9227    0.8904 H   0  0  0  0  0  0  0  0  0  0  0  0
    0.9443    1.1767    0.8895 H   0  0  0  0  0  0  0  0  0  0  0  0
    0.9443    1.1759   -0.8905 H   0  0  0  0  0  0  0  0  0  0  0  0
    0.6855   -1.8598   -1.2484 H   0  0  0  0  0  0  0  0  0  0  0  0
   -1.0935   -1.9188   -1.2484 H   0  0  0  0  0  0  0  0  0  0  0  0
   -0.2457   -0.6317   -2.1390 H   0  0  0  0  0  0  0  0  0  0  0  0
   -0.2457   -0.6299    2.1395 H   0  0  0  0  0  0  0  0  0  0  0  0
   -1.0935   -1.9177    1.2501 H   0  0  0  0  0  0  0  0  0  0  0  0
    0.6855   -1.8587    1.2500 H   0  0  0  0  0  0  0  0  0  0  0  0
  1  2  1  0
  1 10  1  0
  1 11  1  0
  1 12  1  0
  2  3  1  0
  2 13  1  0
  2 14  1  0
  3  4  1  0
  3 15  1  0
  3 16  1  0
  4  5  1  0
  4  6  1  0
  4  7  1  0
  5 17  1  0
  5 18  1  0
  5 19  1  0
  6 20  1  0
  6 21  1  0
  6 22  1  0
  7  8  2  0
  7  9  1  0
M  CHG  1   9  -1
M  END
>  <molID>
mol000008

>  <CAS>
1185-39-3

>  <name>
2,2-Dimethylvaleric acid

>  <activity>
negative

>  <SMILES>
CCCC(C)(C)C(=O)O

>  <InChI>
InChI=1S/C7H14O2/c1-4-5-7(2,3)6(8)9/h4-5H2,1-3H3,(H,8,9)

>  <AMW>
130.187

>  <InChIkey>
ZRYCZAWRXHAAPZ-UHFFFAOYSA-N

>  <parent_SMILES>
CCCC(C)(C)C(=O)O

>  <parent_InChI>
InChI=1S/C7H14O2/c1-4-5-7(2,3)6(8)9/h4-5H2,1-3H3,(H,8,9)

>  <parent_InChIkey>
ZRYCZAWRXHAAPZ-UHFFFAOYSA-N

>  <parent_AMW>
130.187

>  <UniChem>
16

>  <UniChem_wide>
49

>  <heavy_atoms>
9

>  <rotatable_bonds>
3

>  <aromatic_rings>
0

>  <AlogP>
1.8973

>  <PSA>
37.3

>  <HBA>
1

>  <HBD>
1

>  <QED_weighted>
0.6369817928

>  <Lipinski_violations>
0

>  <RO3_pass>
1

>  <NETCHARGE>
-0.9948

>  <ABUNDANCE>
99.48% at pH 7.4

$$$$

     RDKit          3D

 14 14  0  0  0  0  0  0  0  0999 V2000
    1.6751    1.3774   -0.0249 O   0  0  0  0  0  0  0  0  0  0  0  0
    0.4983    0.6959   -0.0120 C   0  0  0  0  0  0  0  0  0  0  0  0
   -0.7032    1.3852   -0.0269 C   0  0  0  0  0  0  0  0  0  0  0  0
   -1.8990    0.6908   -0.0143 C   0  0  0  0  0  0  0  0  0  0  0  0
   -1.8988   -0.6910    0.0137 C   0  0  0  0  0  0  0  0  0  0  0  0
   -0.7030   -1.3853    0.0287 C   0  0  0  0  0  0  0  0  0  0  0  0
    0.4984   -0.6958    0.0103 C   0  0  0  0  0  0  0  0  0  0  0  0
    1.6753   -1.3770    0.0251 O   0  0  0  0  0  0  0  0  0  0  0  0
    2.0147    1.5923    0.8546 H   0  0  0  0  0  0  0  0  0  0  0  0
   -0.7060    2.4650   -0.0480 H   0  0  0  0  0  0  0  0  0  0  0  0
   -2.8350    1.2294   -0.0259 H   0  0  0  0  0  0  0  0  0  0  0  0
   -2.8348   -1.2298    0.0242 H   0  0  0  0  0  0  0  0  0  0  0  0
   -0.7056   -2.4650    0.0509 H   0  0  0  0  0  0  0  0  0  0  0  0
    2.0145   -1.5953   -0.8538 H   0  0  0  0  0  0  0  0  0  0  0  0
  1  2  1  0
  1  9  1  0
  2  3  2  0
  2  7  1  0
  3  4  1  0
  3 10  1  0
  4  5  2  0
  4 11  1  0
  5  6  1  0
  5 12  1  0
  6  7  2  0
  6 13  1  0
  7  8  1  0
  8 14  1  0
M  END
>  <molID>
mol000009

>  <CAS>
120-80-9

>  <name>
Catechol

>  <activity>
na

>  <SMILES>
Oc1ccccc1O

>  <InChI>
InChI=1S/C6H6O2/c7-5-3-1-2-4-6(5)8/h1-4,7-8H

>  <AMW>
110.112

>  <InChIkey>
YCIMNLLNPGFGHC-UHFFFAOYSA-N

>  <parent_SMILES>
Oc1ccccc1O

>  <parent_InChI>
InChI=1S/C6H6O2/c7-5-3-1-2-4-6(5)8/h1-4,7-8H

>  <parent_InChIkey>
YCIMNLLNPGFGHC-UHFFFAOYSA-N

>  <parent_AMW>
110.112

>  <UniChem>
32

>  <UniChem_wide>
32

>  <heavy_atoms>
8

>  <rotatable_bonds>
0

>  <aromatic_rings>
1

>  <AlogP>
1.0978

>  <PSA>
40.46

>  <HBA>
2

>  <HBD>
2

>  <QED_weighted>
0.4971912172

>  <Lipinski_violations>
0

>  <RO3_pass>
1

>  <NETCHARGE>
-0.01186

>  <ABUNDANCE>
98.81% at pH 7.4

$$$$

     RDKit          3D

 14 14  0  0  0  0  0  0  0  0999 V2000
    2.7436   -0.0001   -0.0446 O   0  0  0  0  0  0  0  0  0  0  0  0
    1.3840   -0.0000   -0.0221 C   0  0  0  0  0  0  0  0  0  0  0  0
    0.6906    1.2011   -0.0124 C   0  0  0  0  0  0  0  0  0  0  0  0
   -0.6905    1.2012    0.0106 C   0  0  0  0  0  0  0  0  0  0  0  0
   -1.3839    0.0000    0.0235 C   0  0  0  0  0  0  0  0  0  0  0  0
   -2.7436    0.0001    0.0466 O   0  0  0  0  0  0  0  0  0  0  0  0
   -0.6906   -1.2011    0.0124 C   0  0  0  0  0  0  0  0  0  0  0  0
    0.6905   -1.2012   -0.0145 C   0  0  0  0  0  0  0  0  0  0  0  0
    3.1515    0.0012    0.8321 H   0  0  0  0  0  0  0  0  0  0  0  0
    1.2305    2.1364   -0.0224 H   0  0  0  0  0  0  0  0  0  0  0  0
   -1.2305    2.1365    0.0189 H   0  0  0  0  0  0  0  0  0  0  0  0
   -3.1518   -0.0008   -0.8300 H   0  0  0  0  0  0  0  0  0  0  0  0
   -1.2305   -2.1364    0.0221 H   0  0  0  0  0  0  0  0  0  0  0  0
    1.2304   -2.1365   -0.0231 H   0  0  0  0  0  0  0  0  0  0  0  0
  1  2  1  0
  1  9  1  0
  2  3  2  0
  2  8  1  0
  3  4  1  0
  3 10  1  0
  4  5  2  0
  4 11  1  0
  5  6  1  0
  5  7  1  0
  6 12  1  0
  7  8  2  0
  7 13  1  0
  8 14  1  0
M  END
>  <molID>
mol000010

>  <CAS>
123-31-9

>  <name>
Hydroquinone

>  <activity>
na

>  <SMILES>
Oc1ccc(O)cc1

>  <InChI>
InChI=1S/C6H6O2/c7-5-1-2-6(8)4-3-5/h1-4,7-8H

>  <AMW>
110.112

>  <InChIkey>
QIGBRXMKCJKVMJ-UHFFFAOYSA-N

>  <parent_SMILES>
Oc1ccc(O)cc1

>  <parent_InChI>
InChI=1S/C6H6O2/c7-5-1-2-6(8)4-3-5/h1-4,7-8H

>  <parent_InChIkey>
QIGBRXMKCJKVMJ-UHFFFAOYSA-N

>  <parent_AMW>
110.112

>  <UniChem>
28

>  <UniChem_wide>
28

>  <heavy_atoms>
8

>  <rotatable_bonds>
0

>  <aromatic_rings>
1

>  <AlogP>
1.0978

>  <PSA>
40.46

>  <HBA>
2

>  <HBD>
2

>  <QED_weighted>
0.4971912172

>  <Lipinski_violations>
0

>  <RO3_pass>
1

>  <NETCHARGE>
-0.00137

>  <ABUNDANCE>
99.86% at pH 7.4

$$$$

     RDKit          3D

 25 24  0  0  0  0  0  0  0  0999 V2000
    5.4345   -0.2207   -0.0000 C   0  0  0  0  0  0  0  0  0  0  0  0
    4.1271    0.5741   -0.0000 C   0  0  0  0  0  0  0  0  0  0  0  0
    2.9420   -0.3937    0.0000 C   0  0  0  0  0  0  0  0  0  0  0  0
    1.6346    0.4011   -0.0000 C   0  0  0  0  0  0  0  0  0  0  0  0
    0.4495   -0.5666    0.0000 C   0  0  0  0  0  0  0  0  0  0  0  0
   -0.8579    0.2281   -0.0000 C   0  0  0  0  0  0  0  0  0  0  0  0
   -2.0430   -0.7396    0.0000 C   0  0  0  0  0  0  0  0  0  0  0  0
   -3.3307    0.0432    0.0000 C   0  0  0  0  0  0  0  0  0  0  0  0
   -3.3034    1.2511   -0.0000 O   0  0  0  0  0  0  0  0  0  0  0  0
   -4.5080   -0.6015    0.0000 O   0  0  0  0  0  0  0  0  0  0  0  0
    5.4780   -0.8485    0.8900 H   0  0  0  0  0  0  0  0  0  0  0  0
    5.4780   -0.8485   -0.8900 H   0  0  0  0  0  0  0  0  0  0  0  0
    6.2787    0.4687   -0.0000 H   0  0  0  0  0  0  0  0  0  0  0  0
    4.0835    1.2019    0.8900 H   0  0  0  0  0  0  0  0  0  0  0  0
    4.0835    1.2019   -0.8900 H   0  0  0  0  0  0  0  0  0  0  0  0
    2.9856   -1.0215   -0.8900 H   0  0  0  0  0  0  0  0  0  0  0  0
    2.9856   -1.0215    0.8900 H   0  0  0  0  0  0  0  0  0  0  0  0
    1.5910    1.0289    0.8900 H   0  0  0  0  0  0  0  0  0  0  0  0
    1.5910    1.0289   -0.8900 H   0  0  0  0  0  0  0  0  0  0  0  0
    0.4931   -1.1944   -0.8900 H   0  0  0  0  0  0  0  0  0  0  0  0
    0.4931   -1.1944    0.8900 H   0  0  0  0  0  0  0  0  0  0  0  0
   -0.9015    0.8559    0.8900 H   0  0  0  0  0  0  0  0  0  0  0  0
   -0.9015    0.8559   -0.8900 H   0  0  0  0  0  0  0  0  0  0  0  0
   -1.9994   -1.3674   -0.8900 H   0  0  0  0  0  0  0  0  0  0  0  0
   -1.9994   -1.3674    0.8900 H   0  0  0  0  0  0  0  0  0  0  0  0
  1  2  1  0
  1 11  1  0
  1 12  1  0
  1 13  1  0
  2  3  1  0
  2 14  1  0
  2 15  1  0
  3  4  1  0
  3 16  1  0
  3 17  1  0
  4  5  1  0
  4 18  1  0
  4 19  1  0
  5  6  1  0
  5 20  1  0
  5 21  1  0
  6  7  1  0
  6 22  1  0
  6 23  1  0
  7  8  1  0
  7 24  1  0
  7 25  1  0
  8  9  2  0
  8 10  1  0
M  CHG  1  10  -1
M  END
>  <molID>
mol000011

>  <CAS>
124-07-2

>  <name>
Octanoic acid

>  <activity>
negative

>  <SMILES>
CCCCCCCC(=O)O

>  <InChI>
InChI=1S/C8H16O2/c1-2-3-4-5-6-7-8(9)10/h2-7H2,1H3,(H,9,10)

>  <AMW>
144.214

>  <InChIkey>
WWZKQHOCKIZLMA-UHFFFAOYSA-N

>  <parent_SMILES>
CCCCCCCC(=O)O

>  <parent_InChI>
InChI=1S/C8H16O2/c1-2-3-4-5-6-7-8(9)10/h2-7H2,1H3,(H,9,10)

>  <parent_InChIkey>
WWZKQHOCKIZLMA-UHFFFAOYSA-N

>  <parent_AMW>
144.214

>  <UniChem>
31

>  <UniChem_wide>
31

>  <heavy_atoms>
10

>  <rotatable_bonds>
6

>  <aromatic_rings>
0

>  <AlogP>
2.4315

>  <PSA>
37.3

>  <HBA>
1

>  <HBD>
1

>  <QED_weighted>
0.5810743743

>  <Lipinski_violations>
0

>  <RO3_pass>
0

>  <NETCHARGE>
-0.9977

>  <ABUNDANCE>
99.77% at pH 7.4

$$$$

     RDKit          3D

 40 40  0  0  0  0  0  0  0  0999 V2000
    0.0000    3.7453    0.0111 C   0  0  0  0  0  0  0  0  0  0  0  0
    0.0000    2.2383    0.0049 C   0  0  0  0  0  0  0  0  0  0  0  0
    1.1981    1.5481    0.0024 C   0  0  0  0  0  0  0  0  0  0  0  0
    1.2008    0.1667   -0.0038 C   0  0  0  0  0  0  0  0  0  0  0  0
    2.5070   -0.5849   -0.0065 C   0  0  0  0  0  0  0  0  0  0  0  0
    3.6685    0.4110   -0.0015 C   0  0  0  0  0  0  0  0  0  0  0  0
    2.5887   -1.4700    1.2388 C   0  0  0  0  0  0  0  0  0  0  0  0
    2.5899   -1.4588   -1.2596 C   0  0  0  0  0  0  0  0  0  0  0  0
   -0.0000   -0.5281   -0.0070 C   0  0  0  0  0  0  0  0  0  0  0  0
   -0.0000   -1.8871   -0.0126 O   0  0  0  0  0  0  0  0  0  0  0  0
   -1.2008    0.1667   -0.0040 C   0  0  0  0  0  0  0  0  0  0  0  0
   -2.5070   -0.5849   -0.0070 C   0  0  0  0  0  0  0  0  0  0  0  0
   -3.6684    0.4110   -0.0027 C   0  0  0  0  0  0  0  0  0  0  0  0
   -2.5895   -1.4592   -1.2598 C   0  0  0  0  0  0  0  0  0  0  0  0
   -2.5892   -1.4695    1.2386 C   0  0  0  0  0  0  0  0  0  0  0  0
   -1.1981    1.5481    0.0074 C   0  0  0  0  0  0  0  0  0  0  0  0
    0.0003    4.1128   -1.0150 H   0  0  0  0  0  0  0  0  0  0  0  0
   -0.8901    4.1065    0.5262 H   0  0  0  0  0  0  0  0  0  0  0  0
    0.8899    4.1065    0.5267 H   0  0  0  0  0  0  0  0  0  0  0  0
    2.1326    2.0895    0.0049 H   0  0  0  0  0  0  0  0  0  0  0  0
    3.6094    1.0336    0.8912 H   0  0  0  0  0  0  0  0  0  0  0  0
    4.6132   -0.1326   -0.0035 H   0  0  0  0  0  0  0  0  0  0  0  0
    3.6102    1.0415   -0.8887 H   0  0  0  0  0  0  0  0  0  0  0  0
    1.7612   -2.1795    1.2353 H   0  0  0  0  0  0  0  0  0  0  0  0
    3.5335   -2.0136    1.2369 H   0  0  0  0  0  0  0  0  0  0  0  0
    2.5296   -0.8474    2.1316 H   0  0  0  0  0  0  0  0  0  0  0  0
    2.5317   -0.8283   -2.1468 H   0  0  0  0  0  0  0  0  0  0  0  0
    3.5347   -2.0025   -1.2616 H   0  0  0  0  0  0  0  0  0  0  0  0
    1.7624   -2.1683   -1.2632 H   0  0  0  0  0  0  0  0  0  0  0  0
   -0.0003   -2.2841    0.8692 H   0  0  0  0  0  0  0  0  0  0  0  0
   -3.6099    1.0413   -0.8901 H   0  0  0  0  0  0  0  0  0  0  0  0
   -4.6132   -0.1326   -0.0049 H   0  0  0  0  0  0  0  0  0  0  0  0
   -3.6097    1.0339    0.8898 H   0  0  0  0  0  0  0  0  0  0  0  0
   -1.7620   -2.1688   -1.2628 H   0  0  0  0  0  0  0  0  0  0  0  0
   -3.5342   -2.0028   -1.2619 H   0  0  0  0  0  0  0  0  0  0  0  0
   -2.5309   -0.8290   -2.1472 H   0  0  0  0  0  0  0  0  0  0  0  0
   -2.5304   -0.8466    2.1312 H   0  0  0  0  0  0  0  0  0  0  0  0
   -3.5340   -2.0131    1.2365 H   0  0  0  0  0  0  0  0  0  0  0  0
   -1.7617   -2.1790    1.2356 H   0  0  0  0  0  0  0  0  0  0  0  0
   -2.1326    2.0895    0.0101 H   0  0  0  0  0  0  0  0  0  0  0  0
  1  2  1  0
  1 17  1  0
  1 18  1  0
  1 19  1  0
  2  3  2  0
  2 16  1  0
  3  4  1  0
  3 20  1  0
  4  5  1  0
  4  9  2  0
  5  6  1  0
  5  7  1  0
  5  8  1  0
  6 21  1  0
  6 22  1  0
  6 23  1  0
  7 24  1  0
  7 25  1  0
  7 26  1  0
  8 27  1  0
  8 28  1  0
  8 29  1  0
  9 10  1  0
  9 11  1  0
 10 30  1  0
 11 12  1  0
 11 16  2  0
 12 13  1  0
 12 14  1  0
 12 15  1  0
 13 31  1  0
 13 32  1  0
 13 33  1  0
 14 34  1  0
 14 35  1  0
 14 36  1  0
 15 37  1  0
 15 38  1  0
 15 39  1  0
 16 40  1  0
M  END
>  <molID>
mol000012

>  <CAS>
128-37-0

>  <name>
Butylated hydroxytoluene

>  <activity>
na

>  <SMILES>
Cc1cc(C(C)(C)C)c(O)c(C(C)(C)C)c1

>  <InChI>
InChI=1S/C15H24O/c1-10-8-11(14(2,3)4)13(16)12(9-10)15(5,6)7/h8-9,16H,1-7H3

>  <AMW>
220.356

>  <InChIkey>
NLZUEZXRPGMBCV-UHFFFAOYSA-N

>  <parent_SMILES>
Cc1cc(C(C)(C)C)c(O)c(C(C)(C)C)c1

>  <parent_InChI>
InChI=1S/C15H24O/c1-10-8-11(14(2,3)4)13(16)12(9-10)15(5,6)7/h8-9,16H,1-7H3

>  <parent_InChIkey>
NLZUEZXRPGMBCV-UHFFFAOYSA-N

>  <parent_AMW>
220.356

>  <UniChem>
24

>  <UniChem_wide>
501

>  <heavy_atoms>
16

>  <rotatable_bonds>
0

>  <aromatic_rings>
1

>  <AlogP>
4.29562

>  <PSA>
20.23

>  <HBA>
1

>  <HBD>
1

>  <QED_weighted>
0.6625535227

>  <Lipinski_violations>
0

>  <RO3_pass>
0

>  <NETCHARGE>
-0.00005749

>  <ABUNDANCE>
99.99% at pH 7.4

$$$$

     RDKit          3D

 37 37  0  0  0  0  0  0  0  0999 V2000
    3.6685   -0.6729    0.0008 C   0  0  0  0  0  0  0  0  0  0  0  0
    2.5070    0.3229   -0.0076 C   0  0  0  0  0  0  0  0  0  0  0  0
    2.5890    1.2127    1.2343 C   0  0  0  0  0  0  0  0  0  0  0  0
    2.5896    1.1921   -1.2641 C   0  0  0  0  0  0  0  0  0  0  0  0
    1.2008   -0.4287   -0.0017 C   0  0  0  0  0  0  0  0  0  0  0  0
    1.1982   -1.8101    0.0096 C   0  0  0  0  0  0  0  0  0  0  0  0
    0.0001   -2.5003    0.0155 C   0  0  0  0  0  0  0  0  0  0  0  0
   -1.1980   -1.8102    0.0100 C   0  0  0  0  0  0  0  0  0  0  0  0
   -1.2007   -0.4288   -0.0018 C   0  0  0  0  0  0  0  0  0  0  0  0
   -2.5070    0.3228   -0.0077 C   0  0  0  0  0  0  0  0  0  0  0  0
   -3.6684   -0.6732    0.0013 C   0  0  0  0  0  0  0  0  0  0  0  0
   -2.5889    1.2129    1.2340 C   0  0  0  0  0  0  0  0  0  0  0  0
   -2.5898    1.1915   -1.2644 C   0  0  0  0  0  0  0  0  0  0  0  0
    0.0000    0.2661   -0.0019 C   0  0  0  0  0  0  0  0  0  0  0  0
   -0.0000    1.6251   -0.0136 O   0  0  0  0  0  0  0  0  0  0  0  0
    3.6097   -1.2922    0.8959 H   0  0  0  0  0  0  0  0  0  0  0  0
    3.6101   -1.3068   -0.8840 H   0  0  0  0  0  0  0  0  0  0  0  0
    4.6132   -0.1293   -0.0034 H   0  0  0  0  0  0  0  0  0  0  0  0
    3.5338    1.7563    1.2301 H   0  0  0  0  0  0  0  0  0  0  0  0
    1.7615    1.9221    1.2283 H   0  0  0  0  0  0  0  0  0  0  0  0
    2.5302    0.5934    2.1294 H   0  0  0  0  0  0  0  0  0  0  0  0
    2.5311    0.5583   -2.1489 H   0  0  0  0  0  0  0  0  0  0  0  0
    1.7621    1.9016   -1.2701 H   0  0  0  0  0  0  0  0  0  0  0  0
    3.5343    1.7358   -1.2683 H   0  0  0  0  0  0  0  0  0  0  0  0
    2.1327   -2.3514    0.0135 H   0  0  0  0  0  0  0  0  0  0  0  0
    0.0001   -3.5802    0.0240 H   0  0  0  0  0  0  0  0  0  0  0  0
   -2.1325   -2.3515    0.0147 H   0  0  0  0  0  0  0  0  0  0  0  0
   -3.6094   -1.2921    0.8966 H   0  0  0  0  0  0  0  0  0  0  0  0
   -4.6132   -0.1296   -0.0030 H   0  0  0  0  0  0  0  0  0  0  0  0
   -3.6101   -1.3073   -0.8833 H   0  0  0  0  0  0  0  0  0  0  0  0
   -1.7614    1.9224    1.2276 H   0  0  0  0  0  0  0  0  0  0  0  0
   -3.5336    1.7565    1.2297 H   0  0  0  0  0  0  0  0  0  0  0  0
   -2.5298    0.5940    2.1293 H   0  0  0  0  0  0  0  0  0  0  0  0
   -2.5315    0.5574   -2.1490 H   0  0  0  0  0  0  0  0  0  0  0  0
   -3.5346    1.7351   -1.2687 H   0  0  0  0  0  0  0  0  0  0  0  0
   -1.7624    1.9011   -1.2708 H   0  0  0  0  0  0  0  0  0  0  0  0
   -0.0043    2.0259    0.8664 H   0  0  0  0  0  0  0  0  0  0  0  0
  1  2  1  0
  1 16  1  0
  1 17  1  0
  1 18  1  0
  2  3  1  0
  2  4  1  0
  2  5  1  0
  3 19  1  0
  3 20  1  0
  3 21  1  0
  4 22  1  0
  4 23  1  0
  4 24  1  0
  5  6  2  0
  5 14  1  0
  6  7  1  0
  6 25  1  0
  7  8  2  0
  7 26  1  0
  8  9  1  0
  8 27  1  0
  9 10  1  0
  9 14  2  0
 10 11  1  0
 10 12  1  0
 10 13  1  0
 11 28  1  0
 11 29  1  0
 11 30  1  0
 12 31  1  0
 12 32  1  0
 12 33  1  0
 13 34  1  0
 13 35  1  0
 13 36  1  0
 14 15  1  0
 15 37  1  0
M  END
>  <molID>
mol000013

>  <CAS>
128-39-2

>  <name>
2,6-Di-tert-butylphenol

>  <activity>
na

>  <SMILES>
CC(C)(C)c1cccc(C(C)(C)C)c1O

>  <InChI>
InChI=1S/C14H22O/c1-13(2,3)10-8-7-9-11(12(10)15)14(4,5)6/h7-9,15H,1-6H3

>  <AMW>
206.329

>  <InChIkey>
DKCPKDPYUFEZCP-UHFFFAOYSA-N

>  <parent_SMILES>
CC(C)(C)c1cccc(C(C)(C)C)c1O

>  <parent_InChI>
InChI=1S/C14H22O/c1-13(2,3)10-8-7-9-11(12(10)15)14(4,5)6/h7-9,15H,1-6H3

>  <parent_InChIkey>
DKCPKDPYUFEZCP-UHFFFAOYSA-N

>  <parent_AMW>
206.329

>  <UniChem>
18

>  <UniChem_wide>
376

>  <heavy_atoms>
15

>  <rotatable_bonds>
0

>  <aromatic_rings>
1

>  <AlogP>
3.9872

>  <PSA>
20.23

>  <HBA>
1

>  <HBD>
1

>  <QED_weighted>
0.656446366

>  <Lipinski_violations>
0

>  <RO3_pass>
0

>  <NETCHARGE>
-0.0002045

>  <ABUNDANCE>
99.98% at pH 7.4

$$$$

     RDKit          3D

 37 37  0  0  0  0  0  0  0  0999 V2000
   -2.9141   -0.3562   -1.5666 C   0  0  0  0  0  0  0  0  0  0  0  0
   -2.8958   -0.5028   -0.0438 C   0  0  0  0  0  0  0  0  0  0  0  0
   -3.4884    0.7540    0.5967 C   0  0  0  0  0  0  0  0  0  0  0  0
   -3.7269   -1.7219    0.3612 C   0  0  0  0  0  0  0  0  0  0  0  0
   -1.4539   -0.6871    0.4336 C   0  0  0  0  0  0  0  0  0  0  0  0
   -0.6588    0.5911    0.1598 C   0  0  0  0  0  0  0  0  0  0  0  0
   -1.1146    1.2009   -1.1673 C   0  0  0  0  0  0  0  0  0  0  0  0
   -0.8988    1.5932    1.2907 C   0  0  0  0  0  0  0  0  0  0  0  0
    0.8099    0.2623    0.0833 C   0  0  0  0  0  0  0  0  0  0  0  0
    1.7302    1.2657   -0.1577 C   0  0  0  0  0  0  0  0  0  0  0  0
    3.0770    0.9668   -0.2287 C   0  0  0  0  0  0  0  0  0  0  0  0
    3.5060   -0.3414   -0.0576 C   0  0  0  0  0  0  0  0  0  0  0  0
    4.8305   -0.6379   -0.1266 O   0  0  0  0  0  0  0  0  0  0  0  0
    2.5807   -1.3463    0.1845 C   0  0  0  0  0  0  0  0  0  0  0  0
    1.2354   -1.0414    0.2598 C   0  0  0  0  0  0  0  0  0  0  0  0
   -2.8264    0.6975   -1.8313 H   0  0  0  0  0  0  0  0  0  0  0  0
   -2.0780   -0.9091   -1.9949 H   0  0  0  0  0  0  0  0  0  0  0  0
   -3.8507   -0.7526   -1.9586 H   0  0  0  0  0  0  0  0  0  0  0  0
   -4.5684    0.6397    0.6898 H   0  0  0  0  0  0  0  0  0  0  0  0
   -3.0518    0.8986    1.5849 H   0  0  0  0  0  0  0  0  0  0  0  0
   -3.2672    1.6192   -0.0284 H   0  0  0  0  0  0  0  0  0  0  0  0
   -3.3047   -2.6172   -0.0950 H   0  0  0  0  0  0  0  0  0  0  0  0
   -3.7139   -1.8263    1.4462 H   0  0  0  0  0  0  0  0  0  0  0  0
   -4.7541   -1.5906    0.0212 H   0  0  0  0  0  0  0  0  0  0  0  0
   -1.4493   -0.8957    1.5034 H   0  0  0  0  0  0  0  0  0  0  0  0
   -0.9979   -1.5203   -0.1011 H   0  0  0  0  0  0  0  0  0  0  0  0
   -2.0733    1.7004   -1.0274 H   0  0  0  0  0  0  0  0  0  0  0  0
   -0.3742    1.9246   -1.5080 H   0  0  0  0  0  0  0  0  0  0  0  0
   -1.2212    0.4121   -1.9120 H   0  0  0  0  0  0  0  0  0  0  0  0
   -0.9831    1.0595    2.2373 H   0  0  0  0  0  0  0  0  0  0  0  0
   -0.0635    2.2917    1.3406 H   0  0  0  0  0  0  0  0  0  0  0  0
   -1.8208    2.1424    1.0999 H   0  0  0  0  0  0  0  0  0  0  0  0
    1.3957    2.2839   -0.2908 H   0  0  0  0  0  0  0  0  0  0  0  0
    3.7954    1.7508   -0.4176 H   0  0  0  0  0  0  0  0  0  0  0  0
    5.2901   -0.5850    0.7226 H   0  0  0  0  0  0  0  0  0  0  0  0
    2.9122   -2.3655    0.3177 H   0  0  0  0  0  0  0  0  0  0  0  0
    0.5147   -1.8233    0.4486 H   0  0  0  0  0  0  0  0  0  0  0  0
  1  2  1  0
  1 16  1  0
  1 17  1  0
  1 18  1  0
  2  3  1  0
  2  4  1  0
  2  5  1  0
  3 19  1  0
  3 20  1  0
  3 21  1  0
  4 22  1  0
  4 23  1  0
  4 24  1  0
  5  6  1  0
  5 25  1  0
  5 26  1  0
  6  7  1  0
  6  8  1  0
  6  9  1  0
  7 27  1  0
  7 28  1  0
  7 29  1  0
  8 30  1  0
  8 31  1  0
  8 32  1  0
  9 10  2  0
  9 15  1  0
 10 11  1  0
 10 33  1  0
 11 12  2  0
 11 34  1  0
 12 13  1  0
 12 14  1  0
 13 35  1  0
 14 15  2  0
 14 36  1  0
 15 37  1  0
M  END
>  <molID>
mol000014

>  <CAS>
140-66-9

>  <name>
4-(1,1,3,3-Tetramethylbutyl)phenol

>  <activity>
na

>  <SMILES>
CC(C)(C)CC(C)(C)c1ccc(O)cc1

>  <InChI>
InChI=1S/C14H22O/c1-13(2,3)10-14(4,5)11-6-8-12(15)9-7-11/h6-9,15H,10H2,1-5H3

>  <AMW>
206.329

>  <InChIkey>
ISAVYTVYFVQUDY-UHFFFAOYSA-N

>  <parent_SMILES>
CC(C)(C)CC(C)(C)c1ccc(O)cc1

>  <parent_InChI>
InChI=1S/C14H22O/c1-13(2,3)10-14(4,5)11-6-8-12(15)9-7-11/h6-9,15H,10H2,1-5H3

>  <parent_InChIkey>
ISAVYTVYFVQUDY-UHFFFAOYSA-N

>  <parent_AMW>
206.329

>  <UniChem>
22

>  <UniChem_wide>
115

>  <heavy_atoms>
15

>  <rotatable_bonds>
2

>  <aromatic_rings>
1

>  <AlogP>
4.106

>  <PSA>
20.23

>  <HBA>
1

>  <HBD>
1

>  <QED_weighted>
0.7427822313

>  <Lipinski_violations>
0

>  <RO3_pass>
0

>  <NETCHARGE>
-0.0007496

>  <ABUNDANCE>
99.93% at pH 7.4

$$$$

     RDKit          3D

 19 18  0  0  0  0  0  0  0  0999 V2000
    4.1274   -0.2151    0.0000 C   0  0  0  0  0  0  0  0  0  0  0  0
    2.7948    0.5366   -0.0000 C   0  0  0  0  0  0  0  0  0  0  0  0
    1.6419   -0.4692    0.0000 C   0  0  0  0  0  0  0  0  0  0  0  0
    0.3093    0.2825   -0.0000 C   0  0  0  0  0  0  0  0  0  0  0  0
   -0.8437   -0.7233    0.0000 C   0  0  0  0  0  0  0  0  0  0  0  0
   -2.1562    0.0171   -0.0000 C   0  0  0  0  0  0  0  0  0  0  0  0
   -2.1683    1.2253   -0.0000 O   0  0  0  0  0  0  0  0  0  0  0  0
   -3.3119   -0.6656    0.0000 O   0  0  0  0  0  0  0  0  0  0  0  0
    4.9488    0.5014   -0.0000 H   0  0  0  0  0  0  0  0  0  0  0  0
    4.1914   -0.8412    0.8900 H   0  0  0  0  0  0  0  0  0  0  0  0
    4.1914   -0.8412   -0.8900 H   0  0  0  0  0  0  0  0  0  0  0  0
    2.7308    1.1626    0.8900 H   0  0  0  0  0  0  0  0  0  0  0  0
    2.7308    1.1626   -0.8900 H   0  0  0  0  0  0  0  0  0  0  0  0
    1.7059   -1.0953   -0.8900 H   0  0  0  0  0  0  0  0  0  0  0  0
    1.7059   -1.0953    0.8900 H   0  0  0  0  0  0  0  0  0  0  0  0
    0.2453    0.9086    0.8900 H   0  0  0  0  0  0  0  0  0  0  0  0
    0.2453    0.9085   -0.8900 H   0  0  0  0  0  0  0  0  0  0  0  0
   -0.7797   -1.3494   -0.8900 H   0  0  0  0  0  0  0  0  0  0  0  0
   -0.7797   -1.3493    0.8900 H   0  0  0  0  0  0  0  0  0  0  0  0
  1  2  1  0
  1  9  1  0
  1 10  1  0
  1 11  1  0
  2  3  1  0
  2 12  1  0
  2 13  1  0
  3  4  1  0
  3 14  1  0
  3 15  1  0
  4  5  1  0
  4 16  1  0
  4 17  1  0
  5  6  1  0
  5 18  1  0
  5 19  1  0
  6  7  2  0
  6  8  1  0
M  CHG  1   8  -1
M  END
>  <molID>
mol000015

>  <CAS>
142-62-1

>  <name>
Hexanoic acid

>  <activity>
negative

>  <SMILES>
CCCCCC(=O)O

>  <InChI>
InChI=1S/C6H12O2/c1-2-3-4-5-6(7)8/h2-5H2,1H3,(H,7,8)

>  <AMW>
116.16

>  <InChIkey>
FUZZWVXGSFPDMH-UHFFFAOYSA-N

>  <parent_SMILES>
CCCCCC(=O)O

>  <parent_InChI>
InChI=1S/C6H12O2/c1-2-3-4-5-6(7)8/h2-5H2,1H3,(H,7,8)

>  <parent_InChIkey>
FUZZWVXGSFPDMH-UHFFFAOYSA-N

>  <parent_AMW>
116.16

>  <UniChem>
28

>  <UniChem_wide>
28

>  <heavy_atoms>
8

>  <rotatable_bonds>
4

>  <aromatic_rings>
0

>  <AlogP>
1.6513

>  <PSA>
37.3

>  <HBA>
1

>  <HBD>
1

>  <QED_weighted>
0.5716194309

>  <Lipinski_violations>
0

>  <RO3_pass>
0

>  <NETCHARGE>
-0.9979

>  <ABUNDANCE>
99.79% at pH 7.4

$$$$

     RDKit          3D

 25 24  0  0  0  0  0  0  0  0999 V2000
    4.1716   -0.2333    0.4199 C   0  0  0  0  0  0  0  0  0  0  0  0
    3.0510    0.5435   -0.2742 C   0  0  0  0  0  0  0  0  0  0  0  0
    1.7036    0.1459    0.3319 C   0  0  0  0  0  0  0  0  0  0  0  0
    0.5830    0.9226   -0.3622 C   0  0  0  0  0  0  0  0  0  0  0  0
   -0.7644    0.5250    0.2439 C   0  0  0  0  0  0  0  0  0  0  0  0
   -1.8713    1.3902   -0.3618 C   0  0  0  0  0  0  0  0  0  0  0  0
   -3.1988    1.0800    0.3327 C   0  0  0  0  0  0  0  0  0  0  0  0
   -1.0409   -0.9260   -0.0545 C   0  0  0  0  0  0  0  0  0  0  0  0
   -0.2423   -1.5755   -0.6872 O   0  0  0  0  0  0  0  0  0  0  0  0
   -2.1744   -1.4969    0.3824 O   0  0  0  0  0  0  0  0  0  0  0  0
    4.1694   -0.0005    1.4848 H   0  0  0  0  0  0  0  0  0  0  0  0
    4.0123   -1.3026    0.2814 H   0  0  0  0  0  0  0  0  0  0  0  0
    5.1315    0.0500   -0.0119 H   0  0  0  0  0  0  0  0  0  0  0  0
    3.2103    1.6128   -0.1357 H   0  0  0  0  0  0  0  0  0  0  0  0
    3.0532    0.3107   -1.3391 H   0  0  0  0  0  0  0  0  0  0  0  0
    1.5443   -0.9235    0.1934 H   0  0  0  0  0  0  0  0  0  0  0  0
    1.7014    0.3786    1.3968 H   0  0  0  0  0  0  0  0  0  0  0  0
    0.7423    1.9919   -0.2237 H   0  0  0  0  0  0  0  0  0  0  0  0
    0.5852    0.6898   -1.4271 H   0  0  0  0  0  0  0  0  0  0  0  0
   -0.7356    0.6749    1.3232 H   0  0  0  0  0  0  0  0  0  0  0  0
   -1.6262    2.4433   -0.2233 H   0  0  0  0  0  0  0  0  0  0  0  0
   -1.9593    1.1747   -1.4267 H   0  0  0  0  0  0  0  0  0  0  0  0
   -3.9874    1.6964   -0.0988 H   0  0  0  0  0  0  0  0  0  0  0  0
   -3.4439    0.0270    0.1943 H   0  0  0  0  0  0  0  0  0  0  0  0
   -3.1108    1.2956    1.3976 H   0  0  0  0  0  0  0  0  0  0  0  0
  1  2  1  0
  1 11  1  0
  1 12  1  0
  1 13  1  0
  2  3  1  0
  2 14  1  0
  2 15  1  0
  3  4  1  0
  3 16  1  0
  3 17  1  0
  4  5  1  0
  4 18  1  0
  4 19  1  0
  5  6  1  0
  5  8  1  0
  5 20  1  0
  6  7  1  0
  6 21  1  0
  6 22  1  0
  7 23  1  0
  7 24  1  0
  7 25  1  0
  8  9  2  0
  8 10  1  0
M  CHG  1  10  -1
M  END
>  <molID>
mol000016

>  <CAS>
149-57-5

>  <name>
2-Ethylhexanoic acid

>  <activity>
positive

>  <SMILES>
CCCCC(CC)C(=O)O

>  <InChI>
InChI=1S/C8H16O2/c1-3-5-6-7(4-2)8(9)10/h7H,3-6H2,1-2H3,(H,9,10)

>  <AMW>
144.214

>  <InChIkey>
OBETXYAYXDNJHR-UHFFFAOYSA-N

>  <parent_SMILES>
CCCCC(CC)C(=O)O

>  <parent_InChI>
InChI=1S/C8H16O2/c1-3-5-6-7(4-2)8(9)10/h7H,3-6H2,1-2H3,(H,9,10)

>  <parent_InChIkey>
OBETXYAYXDNJHR-UHFFFAOYSA-N

>  <parent_AMW>
144.214

>  <UniChem>
21

>  <UniChem_wide>
21

>  <heavy_atoms>
10

>  <rotatable_bonds>
5

>  <aromatic_rings>
0

>  <AlogP>
2.2874

>  <PSA>
37.3

>  <HBA>
1

>  <HBD>
1

>  <QED_weighted>
0.643541179

>  <Lipinski_violations>
0

>  <RO3_pass>
0

>  <NETCHARGE>
-0.9964

>  <ABUNDANCE>
99.64% at pH 7.4

$$$$

     RDKit          3D

 23 22  0  0  0  0  0  0  0  0999 V2000
    3.5079   -0.4527    0.1543 C   0  0  0  0  0  0  0  0  0  0  0  0
    2.4647   -0.8390   -0.5375 C   0  0  0  0  0  0  0  0  0  0  0  0
    1.2015   -1.2538    0.1720 C   0  0  0  0  0  0  0  0  0  0  0  0
    0.0259   -0.4289   -0.3556 C   0  0  0  0  0  0  0  0  0  0  0  0
   -1.2744   -0.9341    0.2729 C   0  0  0  0  0  0  0  0  0  0  0  0
   -2.4615   -0.1942   -0.3468 C   0  0  0  0  0  0  0  0  0  0  0  0
   -3.7618   -0.6994    0.2817 C   0  0  0  0  0  0  0  0  0  0  0  0
    0.2277    1.0205    0.0041 C   0  0  0  0  0  0  0  0  0  0  0  0
    1.2109    1.3591    0.6193 O   0  0  0  0  0  0  0  0  0  0  0  0
   -0.6849    1.9355   -0.3590 O   0  0  0  0  0  0  0  0  0  0  0  0
    3.4626   -0.4313    1.2331 H   0  0  0  0  0  0  0  0  0  0  0  0
    4.4146   -0.1597   -0.3541 H   0  0  0  0  0  0  0  0  0  0  0  0
    2.5099   -0.8604   -1.6163 H   0  0  0  0  0  0  0  0  0  0  0  0
    1.0134   -2.3119   -0.0096 H   0  0  0  0  0  0  0  0  0  0  0  0
    1.3135   -1.0832    1.2428 H   0  0  0  0  0  0  0  0  0  0  0  0
   -0.0313   -0.5298   -1.4394 H   0  0  0  0  0  0  0  0  0  0  0  0
   -1.3759   -2.0035    0.0878 H   0  0  0  0  0  0  0  0  0  0  0  0
   -1.2534   -0.7518    1.3474 H   0  0  0  0  0  0  0  0  0  0  0  0
   -2.3600    0.8751   -0.1617 H   0  0  0  0  0  0  0  0  0  0  0  0
   -2.4825   -0.3766   -1.4213 H   0  0  0  0  0  0  0  0  0  0  0  0
   -3.8633   -1.7688    0.0965 H   0  0  0  0  0  0  0  0  0  0  0  0
   -3.7408   -0.5171    1.3561 H   0  0  0  0  0  0  0  0  0  0  0  0
   -4.6076   -0.1723   -0.1598 H   0  0  0  0  0  0  0  0  0  0  0  0
  1  2  2  3
  1 11  1  0
  1 12  1  0
  2  3  1  0
  2 13  1  0
  3  4  1  0
  3 14  1  0
  3 15  1  0
  4  5  1  0
  4  8  1  0
  4 16  1  0
  5  6  1  0
  5 17  1  0
  5 18  1  0
  6  7  1  0
  6 19  1  0
  6 20  1  0
  7 21  1  0
  7 22  1  0
  7 23  1  0
  8  9  2  0
  8 10  1  0
M  CHG  1  10  -1
M  END
>  <molID>
mol000017

>  <CAS>
1575-72-0

>  <name>
2-Propyl-4-pentenoic acid

>  <activity>
positive

>  <SMILES>
C=CCC(CCC)C(=O)O

>  <InChI>
InChI=1S/C8H14O2/c1-3-5-7(6-4-2)8(9)10/h3,7H,1,4-6H2,2H3,(H,9,10)

>  <AMW>
142.198

>  <InChIkey>
UMYDNZXEHYSVFY-UHFFFAOYSA-N

>  <parent_SMILES>
C=CCC(CCC)C(=O)O

>  <parent_InChI>
InChI=1S/C8H14O2/c1-3-5-7(6-4-2)8(9)10/h3,7H,1,4-6H2,2H3,(H,9,10)

>  <parent_InChIkey>
UMYDNZXEHYSVFY-UHFFFAOYSA-N

>  <parent_AMW>
142.198

>  <UniChem>
15

>  <UniChem_wide>
19

>  <heavy_atoms>
10

>  <rotatable_bonds>
5

>  <aromatic_rings>
0

>  <AlogP>
2.0634

>  <PSA>
37.3

>  <HBA>
1

>  <HBD>
1

>  <QED_weighted>
0.5990760922

>  <Lipinski_violations>
0

>  <RO3_pass>
0

>  <NETCHARGE>
-0.9973

>  <ABUNDANCE>
99.73% at pH 7.4

$$$$

     RDKit          3D

 23 22  0  0  0  0  0  0  0  0999 V2000
    3.4216   -0.2596    0.6742 C   0  0  0  0  0  0  0  0  0  0  0  0
    2.4541   -0.7868   -0.0344 C   0  0  0  0  0  0  0  0  0  0  0  0
    1.1441   -1.1380    0.6225 C   0  0  0  0  0  0  0  0  0  0  0  0
   -0.0009   -0.4492   -0.1228 C   0  0  0  0  0  0  0  0  0  0  0  0
   -0.0883   -0.9633   -1.4209 F   0  0  0  0  0  0  0  0  0  0  0  0
   -1.3163   -0.7035    0.6161 C   0  0  0  0  0  0  0  0  0  0  0  0
   -2.4613   -0.0148   -0.1292 C   0  0  0  0  0  0  0  0  0  0  0  0
   -3.7767   -0.2691    0.6097 C   0  0  0  0  0  0  0  0  0  0  0  0
    0.2610    1.0335   -0.1862 C   0  0  0  0  0  0  0  0  0  0  0  0
    0.3610    1.5840   -1.2571 O   0  0  0  0  0  0  0  0  0  0  0  0
    0.3833    1.7425    0.9470 O   0  0  0  0  0  0  0  0  0  0  0  0
    3.2803   -0.0766    1.7292 H   0  0  0  0  0  0  0  0  0  0  0  0
    4.3620   -0.0121    0.2044 H   0  0  0  0  0  0  0  0  0  0  0  0
    2.5954   -0.9699   -1.0894 H   0  0  0  0  0  0  0  0  0  0  0  0
    1.0001   -2.2180    0.5915 H   0  0  0  0  0  0  0  0  0  0  0  0
    1.1563   -0.8027    1.6596 H   0  0  0  0  0  0  0  0  0  0  0  0
   -1.5058   -1.7760    0.6620 H   0  0  0  0  0  0  0  0  0  0  0  0
   -1.2482   -0.3030    1.6276 H   0  0  0  0  0  0  0  0  0  0  0  0
   -2.2719    1.0577   -0.1750 H   0  0  0  0  0  0  0  0  0  0  0  0
   -2.5294   -0.4153   -1.1406 H   0  0  0  0  0  0  0  0  0  0  0  0
   -3.9662   -1.3415    0.6556 H   0  0  0  0  0  0  0  0  0  0  0  0
   -3.7087    0.1314    1.6212 H   0  0  0  0  0  0  0  0  0  0  0  0
   -4.5925    0.2216    0.0788 H   0  0  0  0  0  0  0  0  0  0  0  0
  1  2  2  3
  1 12  1  0
  1 13  1  0
  2  3  1  0
  2 14  1  0
  3  4  1  0
  3 15  1  0
  3 16  1  0
  4  5  1  0
  4  6  1  0
  4  9  1  0
  6  7  1  0
  6 17  1  0
  6 18  1  0
  7  8  1  0
  7 19  1  0
  7 20  1  0
  8 21  1  0
  8 22  1  0
  8 23  1  0
  9 10  2  0
  9 11  1  0
M  CHG  1  11  -1
M  END
>  <molID>
mol000018

>  <CAS>
164228-14-2

>  <name>
4-Pentenoic acid, 2-fluoro-2-propyl-

>  <activity>
negative

>  <SMILES>
C=CCC(F)(CCC)C(=O)O

>  <InChI>
InChI=1S/C8H13FO2/c1-3-5-8(9,6-4-2)7(10)11/h3H,1,4-6H2,2H3,(H,10,11)

>  <AMW>
160.188

>  <InChIkey>
CYSFMOXXKZIWLO-UHFFFAOYSA-N

>  <parent_SMILES>
C=CCC(F)(CCC)C(=O)O

>  <parent_InChI>
InChI=1S/C8H13FO2/c1-3-5-8(9,6-4-2)7(10)11/h3H,1,4-6H2,2H3,(H,10,11)

>  <parent_InChIkey>
CYSFMOXXKZIWLO-UHFFFAOYSA-N

>  <parent_AMW>
160.188

>  <UniChem>
6

>  <UniChem_wide>
6

>  <heavy_atoms>
11

>  <rotatable_bonds>
5

>  <aromatic_rings>
0

>  <AlogP>
2.1555

>  <PSA>
37.3

>  <HBA>
1

>  <HBD>
1

>  <QED_weighted>
0.6276570146

>  <Lipinski_violations>
0

>  <RO3_pass>
0

>  <NETCHARGE>
-1

>  <ABUNDANCE>
100% at pH 7.4

$$$$

     RDKit          3D

 16 15  0  0  0  0  0  0  0  0999 V2000
    2.7160    0.2321    0.2648 C   0  0  0  0  0  0  0  0  0  0  0  0
    1.3137    0.7270   -0.0951 C   0  0  0  0  0  0  0  0  0  0  0  0
    0.2809   -0.3247    0.3151 C   0  0  0  0  0  0  0  0  0  0  0  0
    0.4878   -1.5935   -0.5146 C   0  0  0  0  0  0  0  0  0  0  0  0
   -1.1062    0.2126    0.0739 C   0  0  0  0  0  0  0  0  0  0  0  0
   -1.2536    1.3228   -0.3796 O   0  0  0  0  0  0  0  0  0  0  0  0
   -2.1779   -0.5421    0.3628 O   0  0  0  0  0  0  0  0  0  0  0  0
    2.7769    0.0631    1.3399 H   0  0  0  0  0  0  0  0  0  0  0  0
    2.9185   -0.7006   -0.2616 H   0  0  0  0  0  0  0  0  0  0  0  0
    3.4518    0.9814   -0.0274 H   0  0  0  0  0  0  0  0  0  0  0  0
    1.1113    1.6597    0.4314 H   0  0  0  0  0  0  0  0  0  0  0  0
    1.2529    0.8960   -1.1702 H   0  0  0  0  0  0  0  0  0  0  0  0
    0.4011   -0.5587    1.3729 H   0  0  0  0  0  0  0  0  0  0  0  0
    1.4911   -1.9821   -0.3401 H   0  0  0  0  0  0  0  0  0  0  0  0
   -0.2480   -2.3427   -0.2224 H   0  0  0  0  0  0  0  0  0  0  0  0
    0.3677   -1.3594   -1.5724 H   0  0  0  0  0  0  0  0  0  0  0  0
  1  2  1  0
  1  8  1  0
  1  9  1  0
  1 10  1  0
  2  3  1  0
  2 11  1  0
  2 12  1  0
  3  4  1  0
  3  5  1  0
  3 13  1  0
  4 14  1  0
  4 15  1  0
  4 16  1  0
  5  6  2  0
  5  7  1  0
M  CHG  1   7  -1
M  END
>  <molID>
mol000019

>  <CAS>
1730-91-2

>  <name>
2-Methylbutyric acid, (S)-

>  <activity>
negative

>  <SMILES>
CC[C@H](C)C(=O)O

>  <InChI>
InChI=1S/C5H10O2/c1-3-4(2)5(6)7/h4H,3H2,1-2H3,(H,6,7)/t4-/m0/s1

>  <AMW>
102.133

>  <InChIkey>
WLAMNBDJUVNPJU-BYPYZUCNSA-N

>  <parent_SMILES>
CC[C@H](C)C(=O)O

>  <parent_InChI>
InChI=1S/C5H10O2/c1-3-4(2)5(6)7/h4H,3H2,1-2H3,(H,6,7)/t4-/m0/s1

>  <parent_InChIkey>
WLAMNBDJUVNPJU-BYPYZUCNSA-N

>  <parent_AMW>
102.133

>  <UniChem>
16

>  <UniChem_wide>
41

>  <heavy_atoms>
7

>  <rotatable_bonds>
2

>  <aromatic_rings>
0

>  <AlogP>
1.1171

>  <PSA>
37.3

>  <HBA>
1

>  <HBD>
1

>  <QED_weighted>
0.5741819153

>  <Lipinski_violations>
0

>  <RO3_pass>
1

>  <NETCHARGE>
-0.997

>  <ABUNDANCE>
99.7% at pH 7.4

$$$$

     RDKit          3D

 26 26  0  0  0  0  0  0  0  0999 V2000
    1.6143    2.1615   -0.0032 C   0  0  0  0  0  0  0  0  0  0  0  0
    1.6519    0.6320    0.0037 C   0  0  0  0  0  0  0  0  0  0  0  0
    2.3814    0.1342   -1.2457 C   0  0  0  0  0  0  0  0  0  0  0  0
    2.3895    0.1456    1.2528 C   0  0  0  0  0  0  0  0  0  0  0  0
    0.2439    0.0949    0.0107 C   0  0  0  0  0  0  0  0  0  0  0  0
   -0.8276    0.9663    0.0101 C   0  0  0  0  0  0  0  0  0  0  0  0
   -2.1237    0.4719    0.0166 C   0  0  0  0  0  0  0  0  0  0  0  0
   -3.1787    1.3299    0.0161 O   0  0  0  0  0  0  0  0  0  0  0  0
   -2.3435   -0.8973    0.0231 C   0  0  0  0  0  0  0  0  0  0  0  0
   -1.2717   -1.7690    0.0231 C   0  0  0  0  0  0  0  0  0  0  0  0
    0.0240   -1.2747    0.0118 C   0  0  0  0  0  0  0  0  0  0  0  0
    1.0790   -2.1327    0.0119 O   0  0  0  0  0  0  0  0  0  0  0  0
    1.0888    2.5080   -0.8931 H   0  0  0  0  0  0  0  0  0  0  0  0
    1.0946    2.5162    0.8868 H   0  0  0  0  0  0  0  0  0  0  0  0
    2.6327    2.5500   -0.0083 H   0  0  0  0  0  0  0  0  0  0  0  0
    3.3998    0.5226   -1.2507 H   0  0  0  0  0  0  0  0  0  0  0  0
    2.4082   -0.9555   -1.2408 H   0  0  0  0  0  0  0  0  0  0  0  0
    1.8560    0.4807   -2.1356 H   0  0  0  0  0  0  0  0  0  0  0  0
    1.8698    0.5002    2.1428 H   0  0  0  0  0  0  0  0  0  0  0  0
    2.4163   -0.9441    1.2577 H   0  0  0  0  0  0  0  0  0  0  0  0
    3.4079    0.5341    1.2477 H   0  0  0  0  0  0  0  0  0  0  0  0
   -0.6564    2.0327    0.0051 H   0  0  0  0  0  0  0  0  0  0  0  0
   -3.4867    1.5741   -0.8675 H   0  0  0  0  0  0  0  0  0  0  0  0
   -3.3526   -1.2822    0.0284 H   0  0  0  0  0  0  0  0  0  0  0  0
   -1.4429   -2.8353    0.0285 H   0  0  0  0  0  0  0  0  0  0  0  0
    1.3789   -2.3874   -0.8714 H   0  0  0  0  0  0  0  0  0  0  0  0
  1  2  1  0
  1 13  1  0
  1 14  1  0
  1 15  1  0
  2  3  1  0
  2  4  1  0
  2  5  1  0
  3 16  1  0
  3 17  1  0
  3 18  1  0
  4 19  1  0
  4 20  1  0
  4 21  1  0
  5  6  2  0
  5 11  1  0
  6  7  1  0
  6 22  1  0
  7  8  1  0
  7  9  2  0
  8 23  1  0
  9 10  1  0
  9 24  1  0
 10 11  2  0
 10 25  1  0
 11 12  1  0
 12 26  1  0
M  END
>  <molID>
mol000020

>  <CAS>
1948-33-0

>  <name>
tert-Butylhydroquinone

>  <activity>
na

>  <SMILES>
CC(C)(C)c1cc(O)ccc1O

>  <InChI>
InChI=1S/C10H14O2/c1-10(2,3)8-6-7(11)4-5-9(8)12/h4-6,11-12H,1-3H3

>  <AMW>
166.22

>  <InChIkey>
BGNXCDMCOKJUMV-UHFFFAOYSA-N

>  <parent_SMILES>
CC(C)(C)c1cc(O)ccc1O

>  <parent_InChI>
InChI=1S/C10H14O2/c1-10(2,3)8-6-7(11)4-5-9(8)12/h4-6,11-12H,1-3H3

>  <parent_InChIkey>
BGNXCDMCOKJUMV-UHFFFAOYSA-N

>  <parent_AMW>
166.22

>  <UniChem>
21

>  <UniChem_wide>
87

>  <heavy_atoms>
12

>  <rotatable_bonds>
0

>  <aromatic_rings>
1

>  <AlogP>
2.3953

>  <PSA>
40.46

>  <HBA>
2

>  <HBD>
2

>  <QED_weighted>
0.5810543644

>  <Lipinski_violations>
0

>  <RO3_pass>
1

>  <NETCHARGE>
-0.001728

>  <ABUNDANCE>
99.83% at pH 7.4

$$$$

     RDKit          3D

 22 21  0  0  0  0  0  0  0  0999 V2000
    3.6799   -0.2248   -0.0594 C   0  0  0  0  0  0  0  0  0  0  0  0
    2.3488    0.4251    0.3234 C   0  0  0  0  0  0  0  0  0  0  0  0
    1.1977   -0.5097   -0.0536 C   0  0  0  0  0  0  0  0  0  0  0  0
   -0.1334    0.1402    0.3292 C   0  0  0  0  0  0  0  0  0  0  0  0
   -0.3451    1.4019   -0.5101 C   0  0  0  0  0  0  0  0  0  0  0  0
   -1.6128    2.1192   -0.0419 C   0  0  0  0  0  0  0  0  0  0  0  0
   -1.2582   -0.8291    0.0715 C   0  0  0  0  0  0  0  0  0  0  0  0
   -1.0196   -1.9270   -0.3728 O   0  0  0  0  0  0  0  0  0  0  0  0
   -2.5251   -0.4727    0.3356 O   0  0  0  0  0  0  0  0  0  0  0  0
    3.7896   -1.1694    0.4733 H   0  0  0  0  0  0  0  0  0  0  0  0
    3.6985   -0.4091   -1.1336 H   0  0  0  0  0  0  0  0  0  0  0  0
    4.4999    0.4412    0.2092 H   0  0  0  0  0  0  0  0  0  0  0  0
    2.3301    0.6095    1.3976 H   0  0  0  0  0  0  0  0  0  0  0  0
    2.2391    1.3697   -0.2093 H   0  0  0  0  0  0  0  0  0  0  0  0
    1.2164   -0.6940   -1.1278 H   0  0  0  0  0  0  0  0  0  0  0  0
    1.3074   -1.4543    0.4791 H   0  0  0  0  0  0  0  0  0  0  0  0
   -0.1175    0.4055    1.3863 H   0  0  0  0  0  0  0  0  0  0  0  0
    0.5121    2.0648   -0.3920 H   0  0  0  0  0  0  0  0  0  0  0  0
   -0.4498    1.1267   -1.5595 H   0  0  0  0  0  0  0  0  0  0  0  0
   -1.7636    3.0180   -0.6398 H   0  0  0  0  0  0  0  0  0  0  0  0
   -2.4700    1.4562   -0.1599 H   0  0  0  0  0  0  0  0  0  0  0  0
   -1.5081    2.3943    1.0076 H   0  0  0  0  0  0  0  0  0  0  0  0
  1  2  1  0
  1 10  1  0
  1 11  1  0
  1 12  1  0
  2  3  1  0
  2 13  1  0
  2 14  1  0
  3  4  1  0
  3 15  1  0
  3 16  1  0
  4  5  1  0
  4  7  1  0
  4 17  1  0
  5  6  1  0
  5 18  1  0
  5 19  1  0
  6 20  1  0
  6 21  1  0
  6 22  1  0
  7  8  2  0
  7  9  1  0
M  CHG  1   9  -1
M  END
>  <molID>
mol000021

>  <CAS>
20225-24-5

>  <name>
2-Ethylpentanoic acid

>  <activity>
negative

>  <SMILES>
CCCC(CC)C(=O)O

>  <InChI>
InChI=1S/C7H14O2/c1-3-5-6(4-2)7(8)9/h6H,3-5H2,1-2H3,(H,8,9)

>  <AMW>
130.187

>  <InChIkey>
BAZMYXGARXYAEQ-UHFFFAOYSA-N

>  <parent_SMILES>
CCCC(CC)C(=O)O

>  <parent_InChI>
InChI=1S/C7H14O2/c1-3-5-6(4-2)7(8)9/h6H,3-5H2,1-2H3,(H,8,9)

>  <parent_InChIkey>
BAZMYXGARXYAEQ-UHFFFAOYSA-N

>  <parent_AMW>
130.187

>  <UniChem>
9

>  <UniChem_wide>
49

>  <heavy_atoms>
9

>  <rotatable_bonds>
4

>  <aromatic_rings>
0

>  <AlogP>
1.8973

>  <PSA>
37.3

>  <HBA>
1

>  <HBD>
1

>  <QED_weighted>
0.6345111335

>  <Lipinski_violations>
0

>  <RO3_pass>
0

>  <NETCHARGE>
-0.9965

>  <ABUNDANCE>
99.65% at pH 7.4

$$$$

     RDKit          3D

 22 22  0  0  0  0  0  0  0  0999 V2000
    2.8950    0.5736   -0.0063 C   0  0  0  0  0  0  0  0  0  0  0  0
    1.3880    0.5603   -0.0016 C   0  0  0  0  0  0  0  0  0  0  0  0
    0.6868    1.7516   -0.0109 C   0  0  0  0  0  0  0  0  0  0  0  0
   -0.6960    1.7428   -0.0066 C   0  0  0  0  0  0  0  0  0  0  0  0
   -1.3801    0.5430    0.0069 C   0  0  0  0  0  0  0  0  0  0  0  0
   -2.8871    0.5341    0.0115 C   0  0  0  0  0  0  0  0  0  0  0  0
   -0.6786   -0.6542    0.0157 C   0  0  0  0  0  0  0  0  0  0  0  0
   -1.3494   -1.8360    0.0286 O   0  0  0  0  0  0  0  0  0  0  0  0
    0.7084   -0.6426    0.0061 C   0  0  0  0  0  0  0  0  0  0  0  0
    1.4734   -1.9410    0.0156 C   0  0  0  0  0  0  0  0  0  0  0  0
    3.2614    0.5866    1.0201 H   0  0  0  0  0  0  0  0  0  0  0  0
    3.2646   -0.3180   -0.5128 H   0  0  0  0  0  0  0  0  0  0  0  0
    3.2488    1.4618   -0.5297 H   0  0  0  0  0  0  0  0  0  0  0  0
    1.2199    2.6909   -0.0211 H   0  0  0  0  0  0  0  0  0  0  0  0
   -1.2416    2.6749   -0.0135 H   0  0  0  0  0  0  0  0  0  0  0  0
   -3.2535    0.5221   -1.0149 H   0  0  0  0  0  0  0  0  0  0  0  0
   -3.2436   -0.3531    0.5349 H   0  0  0  0  0  0  0  0  0  0  0  0
   -3.2541    1.4267    0.5180 H   0  0  0  0  0  0  0  0  0  0  0  0
   -1.5462   -2.1862   -0.8511 H   0  0  0  0  0  0  0  0  0  0  0  0
    1.6509   -2.2657   -1.0097 H   0  0  0  0  0  0  0  0  0  0  0  0
    2.4282   -1.7965    0.5213 H   0  0  0  0  0  0  0  0  0  0  0  0
    0.8947   -2.6999    0.5421 H   0  0  0  0  0  0  0  0  0  0  0  0
  1  2  1  0
  1 11  1  0
  1 12  1  0
  1 13  1  0
  2  3  2  0
  2  9  1  0
  3  4  1  0
  3 14  1  0
  4  5  2  0
  4 15  1  0
  5  6  1  0
  5  7  1  0
  6 16  1  0
  6 17  1  0
  6 18  1  0
  7  8  1  0
  7  9  2  0
  8 19  1  0
  9 10  1  0
 10 20  1  0
 10 21  1  0
 10 22  1  0
M  END
>  <molID>
mol000022

>  <CAS>
2416-94-6

>  <name>
2,3,6-Trimethylphenol

>  <activity>
na

>  <SMILES>
Cc1ccc(C)c(O)c1C

>  <InChI>
InChI=1S/C9H12O/c1-6-4-5-7(2)9(10)8(6)3/h4-5,10H,1-3H3

>  <AMW>
136.194

>  <InChIkey>
QQOMQLYQAXGHSU-UHFFFAOYSA-N

>  <parent_SMILES>
Cc1ccc(C)c(O)c1C

>  <parent_InChI>
InChI=1S/C9H12O/c1-6-4-5-7(2)9(10)8(6)3/h4-5,10H,1-3H3

>  <parent_InChIkey>
QQOMQLYQAXGHSU-UHFFFAOYSA-N

>  <parent_AMW>
136.194

>  <UniChem>
15

>  <UniChem_wide>
54

>  <heavy_atoms>
10

>  <rotatable_bonds>
0

>  <aromatic_rings>
1

>  <AlogP>
2.31746

>  <PSA>
20.23

>  <HBA>
1

>  <HBD>
1

>  <QED_weighted>
0.5807646933

>  <Lipinski_violations>
0

>  <RO3_pass>
1

>  <NETCHARGE>
-0.0006359

>  <ABUNDANCE>
99.94% at pH 7.4

$$$$

     RDKit          3D

 31 30  0  0  0  0  0  0  0  0999 V2000
    5.3987   -0.4688    0.1327 C   0  0  0  0  0  0  0  0  0  0  0  0
    4.0928    0.0712   -0.4538 C   0  0  0  0  0  0  0  0  0  0  0  0
    2.9067   -0.6323    0.2090 C   0  0  0  0  0  0  0  0  0  0  0  0
    1.6009   -0.0923   -0.3775 C   0  0  0  0  0  0  0  0  0  0  0  0
    0.4148   -0.7958    0.2852 C   0  0  0  0  0  0  0  0  0  0  0  0
   -0.8911   -0.2558   -0.3012 C   0  0  0  0  0  0  0  0  0  0  0  0
   -2.0712   -1.0449    0.2694 C   0  0  0  0  0  0  0  0  0  0  0  0
   -3.3648   -0.5898   -0.4091 C   0  0  0  0  0  0  0  0  0  0  0  0
   -4.5449   -1.3789    0.1616 C   0  0  0  0  0  0  0  0  0  0  0  0
   -1.0393    1.2000    0.0587 C   0  0  0  0  0  0  0  0  0  0  0  0
   -0.1877    1.7494    0.7167 O   0  0  0  0  0  0  0  0  0  0  0  0
   -2.1172    1.8865   -0.3518 O   0  0  0  0  0  0  0  0  0  0  0  0
    5.4193   -0.2823    1.2064 H   0  0  0  0  0  0  0  0  0  0  0  0
    5.4634   -1.5413   -0.0510 H   0  0  0  0  0  0  0  0  0  0  0  0
    6.2437    0.0324   -0.3394 H   0  0  0  0  0  0  0  0  0  0  0  0
    4.0281    1.1436   -0.2700 H   0  0  0  0  0  0  0  0  0  0  0  0
    4.0722   -0.1154   -1.5275 H   0  0  0  0  0  0  0  0  0  0  0  0
    2.9715   -1.7048    0.0252 H   0  0  0  0  0  0  0  0  0  0  0  0
    2.9274   -0.4458    1.2827 H   0  0  0  0  0  0  0  0  0  0  0  0
    1.5361    0.9801   -0.1937 H   0  0  0  0  0  0  0  0  0  0  0  0
    1.5802   -0.2789   -1.4512 H   0  0  0  0  0  0  0  0  0  0  0  0
    0.4795   -1.8683    0.1015 H   0  0  0  0  0  0  0  0  0  0  0  0
    0.4354   -0.6093    1.3590 H   0  0  0  0  0  0  0  0  0  0  0  0
   -0.8736   -0.3620   -1.3859 H   0  0  0  0  0  0  0  0  0  0  0  0
   -1.9196   -2.1086    0.0862 H   0  0  0  0  0  0  0  0  0  0  0  0
   -2.1419   -0.8675    1.3426 H   0  0  0  0  0  0  0  0  0  0  0  0
   -3.5164    0.4739   -0.2259 H   0  0  0  0  0  0  0  0  0  0  0  0
   -3.2941   -0.7672   -1.4822 H   0  0  0  0  0  0  0  0  0  0  0  0
   -5.4665   -1.0547   -0.3218 H   0  0  0  0  0  0  0  0  0  0  0  0
   -4.3933   -2.4426   -0.0217 H   0  0  0  0  0  0  0  0  0  0  0  0
   -4.6156   -1.2015    1.2347 H   0  0  0  0  0  0  0  0  0  0  0  0
  1  2  1  0
  1 13  1  0
  1 14  1  0
  1 15  1  0
  2  3  1  0
  2 16  1  0
  2 17  1  0
  3  4  1  0
  3 18  1  0
  3 19  1  0
  4  5  1  0
  4 20  1  0
  4 21  1  0
  5  6  1  0
  5 22  1  0
  5 23  1  0
  6  7  1  0
  6 10  1  0
  6 24  1  0
  7  8  1  0
  7 25  1  0
  7 26  1  0
  8  9  1  0
  8 27  1  0
  8 28  1  0
  9 29  1  0
  9 30  1  0
  9 31  1  0
 10 11  2  0
 10 12  1  0
M  CHG  1  12  -1
M  END
>  <molID>
mol000023

>  <CAS>
31080-39-4

>  <name>
2-Propylheptanoic acid

>  <activity>
probably positive

>  <SMILES>
CCCCCC(CCC)C(=O)O

>  <InChI>
InChI=1S/C10H20O2/c1-3-5-6-8-9(7-4-2)10(11)12/h9H,3-8H2,1-2H3,(H,11,12)

>  <AMW>
172.268

>  <InChIkey>
RXGPYPPCEXISOV-UHFFFAOYSA-N

>  <parent_SMILES>
CCCCCC(CCC)C(=O)O

>  <parent_InChI>
InChI=1S/C10H20O2/c1-3-5-6-8-9(7-4-2)10(11)12/h9H,3-8H2,1-2H3,(H,11,12)

>  <parent_InChIkey>
RXGPYPPCEXISOV-UHFFFAOYSA-N

>  <parent_AMW>
172.268

>  <UniChem>
8

>  <UniChem_wide>
41

>  <heavy_atoms>
12

>  <rotatable_bonds>
7

>  <aromatic_rings>
0

>  <AlogP>
3.0676

>  <PSA>
37.3

>  <HBA>
1

>  <HBD>
1

>  <QED_weighted>
0.5920051643

>  <Lipinski_violations>
0

>  <RO3_pass>
0

>  <NETCHARGE>
-0.9958

>  <ABUNDANCE>
99.58% at pH 7.4

$$$$

     RDKit          3D

 28 27  0  0  0  0  0  0  0  0999 V2000
    4.5807   -0.2151   -0.3702 C   0  0  0  0  0  0  0  0  0  0  0  0
    3.3504   -0.8491    0.2820 C   0  0  0  0  0  0  0  0  0  0  0  0
    2.0828   -0.2489   -0.3294 C   0  0  0  0  0  0  0  0  0  0  0  0
    0.8525   -0.8829    0.3228 C   0  0  0  0  0  0  0  0  0  0  0  0
   -0.4151   -0.2827   -0.2886 C   0  0  0  0  0  0  0  0  0  0  0  0
   -1.6426   -1.0034    0.2725 C   0  0  0  0  0  0  0  0  0  0  0  0
   -2.9010   -0.4897   -0.4299 C   0  0  0  0  0  0  0  0  0  0  0  0
   -4.1284   -1.2105    0.1312 C   0  0  0  0  0  0  0  0  0  0  0  0
   -0.4929    1.1828    0.0540 C   0  0  0  0  0  0  0  0  0  0  0  0
    0.3764    1.6946    0.7190 O   0  0  0  0  0  0  0  0  0  0  0  0
   -1.5278    1.9194   -0.3795 O   0  0  0  0  0  0  0  0  0  0  0  0
    5.4838   -0.6427    0.0654 H   0  0  0  0  0  0  0  0  0  0  0  0
    4.5659   -0.4122   -1.4421 H   0  0  0  0  0  0  0  0  0  0  0  0
    4.5690    0.8612   -0.1984 H   0  0  0  0  0  0  0  0  0  0  0  0
    3.3622   -1.9254    0.1103 H   0  0  0  0  0  0  0  0  0  0  0  0
    3.3652   -0.6520    1.3539 H   0  0  0  0  0  0  0  0  0  0  0  0
    2.0710    0.8274   -0.1577 H   0  0  0  0  0  0  0  0  0  0  0  0
    2.0680   -0.4460   -1.4013 H   0  0  0  0  0  0  0  0  0  0  0  0
    0.8643   -1.9592    0.1511 H   0  0  0  0  0  0  0  0  0  0  0  0
    0.8673   -0.6858    1.3947 H   0  0  0  0  0  0  0  0  0  0  0  0
   -0.3875   -0.4016   -1.3718 H   0  0  0  0  0  0  0  0  0  0  0  0
   -1.5436   -2.0756    0.1025 H   0  0  0  0  0  0  0  0  0  0  0  0
   -1.7194   -0.8108    1.3425 H   0  0  0  0  0  0  0  0  0  0  0  0
   -2.9999    0.5824   -0.2599 H   0  0  0  0  0  0  0  0  0  0  0  0
   -2.8241   -0.6824   -1.5000 H   0  0  0  0  0  0  0  0  0  0  0  0
   -5.0250   -0.8445   -0.3692 H   0  0  0  0  0  0  0  0  0  0  0  0
   -4.0295   -2.2826   -0.0388 H   0  0  0  0  0  0  0  0  0  0  0  0
   -4.2053   -1.0178    1.2013 H   0  0  0  0  0  0  0  0  0  0  0  0
  1  2  1  0
  1 12  1  0
  1 13  1  0
  1 14  1  0
  2  3  1  0
  2 15  1  0
  2 16  1  0
  3  4  1  0
  3 17  1  0
  3 18  1  0
  4  5  1  0
  4 19  1  0
  4 20  1  0
  5  6  1  0
  5  9  1  0
  5 21  1  0
  6  7  1  0
  6 22  1  0
  6 23  1  0
  7  8  1  0
  7 24  1  0
  7 25  1  0
  8 26  1  0
  8 27  1  0
  8 28  1  0
  9 10  2  0
  9 11  1  0
M  CHG  1  11  -1
M  END
>  <molID>
mol000024

>  <CAS>
3274-28-0

>  <name>
Hexanoic acid, 2-propyl-

>  <activity>
probably positive

>  <SMILES>
CCCCC(CCC)C(=O)O

>  <InChI>
InChI=1S/C9H18O2/c1-3-5-7-8(6-4-2)9(10)11/h8H,3-7H2,1-2H3,(H,10,11)

>  <AMW>
158.241

>  <InChIkey>
HWXRWNDOEKHFTL-UHFFFAOYSA-N

>  <parent_SMILES>
CCCCC(CCC)C(=O)O

>  <parent_InChI>
InChI=1S/C9H18O2/c1-3-5-7-8(6-4-2)9(10)11/h8H,3-7H2,1-2H3,(H,10,11)

>  <parent_InChIkey>
HWXRWNDOEKHFTL-UHFFFAOYSA-N

>  <parent_AMW>
158.241

>  <UniChem>
9

>  <UniChem_wide>
66

>  <heavy_atoms>
11

>  <rotatable_bonds>
6

>  <aromatic_rings>
0

>  <AlogP>
2.6775

>  <PSA>
37.3

>  <HBA>
1

>  <HBD>
1

>  <QED_weighted>
0.6422851677

>  <Lipinski_violations>
0

>  <RO3_pass>
0

>  <NETCHARGE>
-0.9962

>  <ABUNDANCE>
99.62% at pH 7.4

$$$$

     RDKit          3D

 28 27  0  0  0  0  0  0  0  0999 V2000
    5.0246    0.0790   -0.0946 C   0  0  0  0  0  0  0  0  0  0  0  0
    3.6634   -0.3010    0.4918 C   0  0  0  0  0  0  0  0  0  0  0  0
    2.5635    0.4918   -0.2169 C   0  0  0  0  0  0  0  0  0  0  0  0
    1.2024    0.1118    0.3695 C   0  0  0  0  0  0  0  0  0  0  0  0
    0.1024    0.9047   -0.3392 C   0  0  0  0  0  0  0  0  0  0  0  0
   -1.2587    0.5247    0.2472 C   0  0  0  0  0  0  0  0  0  0  0  0
   -2.3451    1.4058   -0.3728 C   0  0  0  0  0  0  0  0  0  0  0  0
   -3.6864    1.1127    0.3024 C   0  0  0  0  0  0  0  0  0  0  0  0
   -1.5507   -0.9220   -0.0574 C   0  0  0  0  0  0  0  0  0  0  0  0
   -0.7521   -1.5815   -0.6797 O   0  0  0  0  0  0  0  0  0  0  0  0
   -2.6980   -1.4780    0.3626 O   0  0  0  0  0  0  0  0  0  0  0  0
    5.8082   -0.4859    0.4103 H   0  0  0  0  0  0  0  0  0  0  0  0
    5.0387   -0.1523   -1.1596 H   0  0  0  0  0  0  0  0  0  0  0  0
    5.1965    1.1459    0.0478 H   0  0  0  0  0  0  0  0  0  0  0  0
    3.4915   -1.3679    0.3494 H   0  0  0  0  0  0  0  0  0  0  0  0
    3.6493   -0.0697    1.5569 H   0  0  0  0  0  0  0  0  0  0  0  0
    2.7354    1.5587   -0.0745 H   0  0  0  0  0  0  0  0  0  0  0  0
    2.5776    0.2605   -1.2820 H   0  0  0  0  0  0  0  0  0  0  0  0
    1.0305   -0.9551    0.2271 H   0  0  0  0  0  0  0  0  0  0  0  0
    1.1882    0.3432    1.4346 H   0  0  0  0  0  0  0  0  0  0  0  0
    0.2743    1.9716   -0.1968 H   0  0  0  0  0  0  0  0  0  0  0  0
    0.1165    0.6734   -1.4043 H   0  0  0  0  0  0  0  0  0  0  0  0
   -1.2433    0.6727    1.3270 H   0  0  0  0  0  0  0  0  0  0  0  0
   -2.0877    2.4552   -0.2292 H   0  0  0  0  0  0  0  0  0  0  0  0
   -2.4209    1.1929   -1.4391 H   0  0  0  0  0  0  0  0  0  0  0  0
   -4.4604    1.7404   -0.1393 H   0  0  0  0  0  0  0  0  0  0  0  0
   -3.9438    0.0633    0.1589 H   0  0  0  0  0  0  0  0  0  0  0  0
   -3.6106    1.3256    1.3687 H   0  0  0  0  0  0  0  0  0  0  0  0
  1  2  1  0
  1 12  1  0
  1 13  1  0
  1 14  1  0
  2  3  1  0
  2 15  1  0
  2 16  1  0
  3  4  1  0
  3 17  1  0
  3 18  1  0
  4  5  1  0
  4 19  1  0
  4 20  1  0
  5  6  1  0
  5 21  1  0
  5 22  1  0
  6  7  1  0
  6  9  1  0
  6 23  1  0
  7  8  1  0
  7 24  1  0
  7 25  1  0
  8 26  1  0
  8 27  1  0
  8 28  1  0
  9 10  2  0
  9 11  1  0
M  CHG  1  11  -1
M  END
>  <molID>
mol000025

>  <CAS>
3274-29-1

>  <name>
Heptanoic acid, 2-ethyl-

>  <activity>
no data

>  <SMILES>
CCCCCC(CC)C(=O)O

>  <InChI>
InChI=1S/C9H18O2/c1-3-5-6-7-8(4-2)9(10)11/h8H,3-7H2,1-2H3,(H,10,11)

>  <AMW>
158.241

>  <InChIkey>
DYWSVUBJGFTOQC-UHFFFAOYSA-N

>  <parent_SMILES>
CCCCCC(CC)C(=O)O

>  <parent_InChI>
InChI=1S/C9H18O2/c1-3-5-6-7-8(4-2)9(10)11/h8H,3-7H2,1-2H3,(H,10,11)

>  <parent_InChIkey>
DYWSVUBJGFTOQC-UHFFFAOYSA-N

>  <parent_AMW>
158.241

>  <UniChem>
11

>  <UniChem_wide>
43

>  <heavy_atoms>
11

>  <rotatable_bonds>
6

>  <aromatic_rings>
0

>  <AlogP>
2.6775

>  <PSA>
37.3

>  <HBA>
1

>  <HBD>
1

>  <QED_weighted>
0.6008323144

>  <Lipinski_violations>
0

>  <RO3_pass>
0

>  <NETCHARGE>
-0.996

>  <ABUNDANCE>
99.6% at pH 7.4

$$$$

     RDKit          3D

 43 43  0  0  0  0  0  0  0  0999 V2000
   -0.0008    4.1401    0.8248 C   0  0  0  0  0  0  0  0  0  0  0  0
   -0.0004    3.4476   -0.5395 C   0  0  0  0  0  0  0  0  0  0  0  0
   -0.0002    1.9533   -0.3443 C   0  0  0  0  0  0  0  0  0  0  0  0
   -1.1982    1.2688   -0.2553 C   0  0  0  0  0  0  0  0  0  0  0  0
   -1.2007   -0.1010   -0.0759 C   0  0  0  0  0  0  0  0  0  0  0  0
   -2.5069   -0.8465    0.0211 C   0  0  0  0  0  0  0  0  0  0  0  0
   -3.6684    0.1408   -0.1088 C   0  0  0  0  0  0  0  0  0  0  0  0
   -2.5885   -1.8807   -1.1034 C   0  0  0  0  0  0  0  0  0  0  0  0
   -2.5897   -1.5563    1.3739 C   0  0  0  0  0  0  0  0  0  0  0  0
    0.0001   -0.7898    0.0144 C   0  0  0  0  0  0  0  0  0  0  0  0
    0.0003   -2.1373    0.1904 O   0  0  0  0  0  0  0  0  0  0  0  0
    1.2008   -0.1007   -0.0757 C   0  0  0  0  0  0  0  0  0  0  0  0
    2.5071   -0.8458    0.0215 C   0  0  0  0  0  0  0  0  0  0  0  0
    3.6685    0.1418   -0.1076 C   0  0  0  0  0  0  0  0  0  0  0  0
    2.5897   -1.5562    1.3741 C   0  0  0  0  0  0  0  0  0  0  0  0
    2.5894   -1.8797   -1.1033 C   0  0  0  0  0  0  0  0  0  0  0  0
    1.1980    1.2684   -0.2603 C   0  0  0  0  0  0  0  0  0  0  0  0
   -0.0010    5.2209    0.6836 H   0  0  0  0  0  0  0  0  0  0  0  0
   -0.8909    3.8463    1.3811 H   0  0  0  0  0  0  0  0  0  0  0  0
    0.8890    3.8465    1.3816 H   0  0  0  0  0  0  0  0  0  0  0  0
   -0.8902    3.7412   -1.0963 H   0  0  0  0  0  0  0  0  0  0  0  0
    0.8897    3.7414   -1.0958 H   0  0  0  0  0  0  0  0  0  0  0  0
   -2.1328    1.8054   -0.3256 H   0  0  0  0  0  0  0  0  0  0  0  0
   -3.6094    0.6466   -1.0726 H   0  0  0  0  0  0  0  0  0  0  0  0
   -4.6131   -0.3983   -0.0386 H   0  0  0  0  0  0  0  0  0  0  0  0
   -3.6103    0.8777    0.6923 H   0  0  0  0  0  0  0  0  0  0  0  0
   -1.7610   -2.5841   -1.0109 H   0  0  0  0  0  0  0  0  0  0  0  0
   -3.5332   -2.4199   -1.0333 H   0  0  0  0  0  0  0  0  0  0  0  0
   -2.5295   -1.3750   -2.0672 H   0  0  0  0  0  0  0  0  0  0  0  0
   -2.5316   -0.8195    2.1750 H   0  0  0  0  0  0  0  0  0  0  0  0
   -3.5344   -2.0955    1.4441 H   0  0  0  0  0  0  0  0  0  0  0  0
   -1.7622   -2.2597    1.4664 H   0  0  0  0  0  0  0  0  0  0  0  0
    0.0006   -2.6418   -0.6346 H   0  0  0  0  0  0  0  0  0  0  0  0
    3.6098    0.8784    0.6938 H   0  0  0  0  0  0  0  0  0  0  0  0
    4.6133   -0.3971   -0.0373 H   0  0  0  0  0  0  0  0  0  0  0  0
    3.6097    0.6479   -1.0712 H   0  0  0  0  0  0  0  0  0  0  0  0
    1.7623   -2.2598    1.4661 H   0  0  0  0  0  0  0  0  0  0  0  0
    3.5345   -2.0951    1.4444 H   0  0  0  0  0  0  0  0  0  0  0  0
    2.5310   -0.8196    2.1755 H   0  0  0  0  0  0  0  0  0  0  0  0
    2.5306   -1.3737   -2.0670 H   0  0  0  0  0  0  0  0  0  0  0  0
    3.5342   -2.4187   -1.0330 H   0  0  0  0  0  0  0  0  0  0  0  0
    1.7620   -2.5833   -1.0114 H   0  0  0  0  0  0  0  0  0  0  0  0
    2.1324    1.8052   -0.3308 H   0  0  0  0  0  0  0  0  0  0  0  0
  1  2  1  0
  1 18  1  0
  1 19  1  0
  1 20  1  0
  2  3  1  0
  2 21  1  0
  2 22  1  0
  3  4  2  0
  3 17  1  0
  4  5  1  0
  4 23  1  0
  5  6  1  0
  5 10  2  0
  6  7  1  0
  6  8  1  0
  6  9  1  0
  7 24  1  0
  7 25  1  0
  7 26  1  0
  8 27  1  0
  8 28  1  0
  8 29  1  0
  9 30  1  0
  9 31  1  0
  9 32  1  0
 10 11  1  0
 10 12  1  0
 11 33  1  0
 12 13  1  0
 12 17  2  0
 13 14  1  0
 13 15  1  0
 13 16  1  0
 14 34  1  0
 14 35  1  0
 14 36  1  0
 15 37  1  0
 15 38  1  0
 15 39  1  0
 16 40  1  0
 16 41  1  0
 16 42  1  0
 17 43  1  0
M  END
>  <molID>
mol000026

>  <CAS>
4130-42-1

>  <name>
2,6-Di-tert-butyl-4-ethylphenol

>  <activity>
na

>  <SMILES>
CCc1cc(C(C)(C)C)c(O)c(C(C)(C)C)c1

>  <InChI>
InChI=1S/C16H26O/c1-8-11-9-12(15(2,3)4)14(17)13(10-11)16(5,6)7/h9-10,17H,8H2,1-7H3

>  <AMW>
234.383

>  <InChIkey>
BVUXDWXKPROUDO-UHFFFAOYSA-N

>  <parent_SMILES>
CCc1cc(C(C)(C)C)c(O)c(C(C)(C)C)c1

>  <parent_InChI>
InChI=1S/C16H26O/c1-8-11-9-12(15(2,3)4)14(17)13(10-11)16(5,6)7/h9-10,17H,8H2,1-7H3

>  <parent_InChIkey>
BVUXDWXKPROUDO-UHFFFAOYSA-N

>  <parent_AMW>
234.383

>  <UniChem>
15

>  <UniChem_wide>
61

>  <heavy_atoms>
17

>  <rotatable_bonds>
1

>  <aromatic_rings>
1

>  <AlogP>
4.5496

>  <PSA>
20.23

>  <HBA>
1

>  <HBD>
1

>  <QED_weighted>
0.7222938266

>  <Lipinski_violations>
0

>  <RO3_pass>
0

>  <NETCHARGE>
-0.00004912

>  <ABUNDANCE>
100% at pH 7.4

$$$$

     RDKit          3D

 22 21  0  0  0  0  0  0  0  0999 V2000
    4.2119   -0.0900   -0.1643 C   0  0  0  0  0  0  0  0  0  0  0  0
    2.8988    0.6218    0.1674 C   0  0  0  0  0  0  0  0  0  0  0  0
    1.7208   -0.2677   -0.2351 C   0  0  0  0  0  0  0  0  0  0  0  0
    0.4077    0.4440    0.0965 C   0  0  0  0  0  0  0  0  0  0  0  0
   -0.7703   -0.4455   -0.3060 C   0  0  0  0  0  0  0  0  0  0  0  0
   -0.7689   -1.7127    0.5514 C   0  0  0  0  0  0  0  0  0  0  0  0
   -2.0608    0.3033   -0.0936 C   0  0  0  0  0  0  0  0  0  0  0  0
   -2.0404    1.4325    0.3357 O   0  0  0  0  0  0  0  0  0  0  0  0
   -3.2328   -0.2842   -0.3814 O   0  0  0  0  0  0  0  0  0  0  0  0
    5.0512    0.5437    0.1225 H   0  0  0  0  0  0  0  0  0  0  0  0
    4.2635   -1.0310    0.3833 H   0  0  0  0  0  0  0  0  0  0  0  0
    4.2566   -0.2896   -1.2349 H   0  0  0  0  0  0  0  0  0  0  0  0
    2.8541    0.8214    1.2380 H   0  0  0  0  0  0  0  0  0  0  0  0
    2.8472    1.5628   -0.3801 H   0  0  0  0  0  0  0  0  0  0  0  0
    1.7655   -0.4674   -1.3058 H   0  0  0  0  0  0  0  0  0  0  0  0
    1.7724   -1.2088    0.3124 H   0  0  0  0  0  0  0  0  0  0  0  0
    0.3630    0.6436    1.1672 H   0  0  0  0  0  0  0  0  0  0  0  0
    0.3561    1.3851   -0.4510 H   0  0  0  0  0  0  0  0  0  0  0  0
   -0.6772   -0.7181   -1.3573 H   0  0  0  0  0  0  0  0  0  0  0  0
   -0.8621   -1.4401    1.6027 H   0  0  0  0  0  0  0  0  0  0  0  0
   -1.6082   -2.3463    0.2647 H   0  0  0  0  0  0  0  0  0  0  0  0
    0.1644   -2.2543    0.3978 H   0  0  0  0  0  0  0  0  0  0  0  0
  1  2  1  0
  1 10  1  0
  1 11  1  0
  1 12  1  0
  2  3  1  0
  2 13  1  0
  2 14  1  0
  3  4  1  0
  3 15  1  0
  3 16  1  0
  4  5  1  0
  4 17  1  0
  4 18  1  0
  5  6  1  0
  5  7  1  0
  5 19  1  0
  6 20  1  0
  6 21  1  0
  6 22  1  0
  7  8  2  0
  7  9  1  0
M  CHG  1   9  -1
M  END
>  <molID>
mol000027

>  <CAS>
4536-23-6

>  <name>
2-Methylhexanoic acid

>  <activity>
negative

>  <SMILES>
CCCCC(C)C(=O)O

>  <InChI>
InChI=1S/C7H14O2/c1-3-4-5-6(2)7(8)9/h6H,3-5H2,1-2H3,(H,8,9)

>  <AMW>
130.187

>  <InChIkey>
CVKMFSAVYPAZTQ-UHFFFAOYSA-N

>  <parent_SMILES>
CCCCC(C)C(=O)O

>  <parent_InChI>
InChI=1S/C7H14O2/c1-3-4-5-6(2)7(8)9/h6H,3-5H2,1-2H3,(H,8,9)

>  <parent_InChIkey>
CVKMFSAVYPAZTQ-UHFFFAOYSA-N

>  <parent_AMW>
130.187

>  <UniChem>
19

>  <UniChem_wide>
182

>  <heavy_atoms>
9

>  <rotatable_bonds>
4

>  <aromatic_rings>
0

>  <AlogP>
1.8973

>  <PSA>
37.3

>  <HBA>
1

>  <HBD>
1

>  <QED_weighted>
0.6345111335

>  <Lipinski_violations>
0

>  <RO3_pass>
0

>  <NETCHARGE>
-0.9967

>  <ABUNDANCE>
99.67% at pH 7.4

$$$$

     RDKit          3D

 19 19  0  0  0  0  0  0  0  0999 V2000
    2.5069   -0.7334    0.0165 C   0  0  0  0  0  0  0  0  0  0  0  0
    1.2008    0.0184    0.0084 C   0  0  0  0  0  0  0  0  0  0  0  0
    1.1983    1.3997   -0.0071 C   0  0  0  0  0  0  0  0  0  0  0  0
    0.0003    2.0900   -0.0151 C   0  0  0  0  0  0  0  0  0  0  0  0
   -1.1978    1.4001   -0.0075 C   0  0  0  0  0  0  0  0  0  0  0  0
   -1.2007    0.0187    0.0085 C   0  0  0  0  0  0  0  0  0  0  0  0
   -2.5071   -0.7326    0.0168 C   0  0  0  0  0  0  0  0  0  0  0  0
   -0.0001   -0.6763    0.0107 C   0  0  0  0  0  0  0  0  0  0  0  0
   -0.0003   -2.0352    0.0265 O   0  0  0  0  0  0  0  0  0  0  0  0
    2.8221   -0.9031    1.0461 H   0  0  0  0  0  0  0  0  0  0  0  0
    2.3777   -1.6917   -0.4865 H   0  0  0  0  0  0  0  0  0  0  0  0
    3.2656   -0.1491   -0.5041 H   0  0  0  0  0  0  0  0  0  0  0  0
    2.1329    1.9409   -0.0128 H   0  0  0  0  0  0  0  0  0  0  0  0
    0.0005    3.1699   -0.0269 H   0  0  0  0  0  0  0  0  0  0  0  0
   -2.1323    1.9415   -0.0137 H   0  0  0  0  0  0  0  0  0  0  0  0
   -2.8217   -0.9257   -1.0088 H   0  0  0  0  0  0  0  0  0  0  0  0
   -2.3784   -1.6792    0.5417 H   0  0  0  0  0  0  0  0  0  0  0  0
   -3.2659   -0.1364    0.5235 H   0  0  0  0  0  0  0  0  0  0  0  0
   -0.0046   -2.4387   -0.8523 H   0  0  0  0  0  0  0  0  0  0  0  0
  1  2  1  0
  1 10  1  0
  1 11  1  0
  1 12  1  0
  2  3  2  0
  2  8  1  0
  3  4  1  0
  3 13  1  0
  4  5  2  0
  4 14  1  0
  5  6  1  0
  5 15  1  0
  6  7  1  0
  6  8  2  0
  7 16  1  0
  7 17  1  0
  7 18  1  0
  8  9  1  0
  9 19  1  0
M  END
>  <molID>
mol000028

>  <CAS>
576-26-1

>  <name>
2,6-Dimethylphenol

>  <activity>
na

>  <SMILES>
Cc1cccc(C)c1O

>  <InChI>
InChI=1S/C8H10O/c1-6-4-3-5-7(2)8(6)9/h3-5,9H,1-2H3

>  <AMW>
122.167

>  <InChIkey>
NXXYKOUNUYWIHA-UHFFFAOYSA-N

>  <parent_SMILES>
Cc1cccc(C)c1O

>  <parent_InChI>
InChI=1S/C8H10O/c1-6-4-3-5-7(2)8(6)9/h3-5,9H,1-2H3

>  <parent_InChIkey>
NXXYKOUNUYWIHA-UHFFFAOYSA-N

>  <parent_AMW>
122.167

>  <UniChem>
22

>  <UniChem_wide>
428

>  <heavy_atoms>
9

>  <rotatable_bonds>
0

>  <aromatic_rings>
1

>  <AlogP>
2.00904

>  <PSA>
20.23

>  <HBA>
1

>  <HBD>
1

>  <QED_weighted>
0.5605086279

>  <Lipinski_violations>
0

>  <RO3_pass>
1

>  <NETCHARGE>
-0.001352

>  <ABUNDANCE>
99.86% at pH 7.4

$$$$

     RDKit          3D

 14 13  0  0  0  0  0  0  0  0999 V2000
    3.2599    0.0443   -0.4599 C   0  0  0  0  0  0  0  0  0  0  0  0
    2.2916   -0.2893    0.3569 C   0  0  0  0  0  0  0  0  0  0  0  0
    0.9494    0.3878    0.2507 C   0  0  0  0  0  0  0  0  0  0  0  0
   -0.1433   -0.6697    0.0816 C   0  0  0  0  0  0  0  0  0  0  0  0
   -1.4855    0.0074   -0.0246 C   0  0  0  0  0  0  0  0  0  0  0  0
   -1.5603    1.2121    0.0295 O   0  0  0  0  0  0  0  0  0  0  0  0
   -2.5977   -0.7279   -0.1792 O   0  0  0  0  0  0  0  0  0  0  0  0
    3.0964    0.8046   -1.2094 H   0  0  0  0  0  0  0  0  0  0  0  0
    4.2231   -0.4377   -0.3809 H   0  0  0  0  0  0  0  0  0  0  0  0
    2.4551   -1.0495    1.1063 H   0  0  0  0  0  0  0  0  0  0  0  0
    0.7604    0.9638    1.1566 H   0  0  0  0  0  0  0  0  0  0  0  0
    0.9461    1.0548   -0.6114 H   0  0  0  0  0  0  0  0  0  0  0  0
    0.0457   -1.2458   -0.8243 H   0  0  0  0  0  0  0  0  0  0  0  0
   -0.1400   -1.3367    0.9436 H   0  0  0  0  0  0  0  0  0  0  0  0
  1  2  2  3
  1  8  1  0
  1  9  1  0
  2  3  1  0
  2 10  1  0
  3  4  1  0
  3 11  1  0
  3 12  1  0
  4  5  1  0
  4 13  1  0
  4 14  1  0
  5  6  2  0
  5  7  1  0
M  CHG  1   7  -1
M  END
>  <molID>
mol000029

>  <CAS>
591-80-0

>  <name>
4-Pentenoic acid

>  <activity>
positive

>  <SMILES>
C=CCCC(=O)O

>  <InChI>
InChI=1S/C5H8O2/c1-2-3-4-5(6)7/h2H,1,3-4H2,(H,6,7)

>  <AMW>
100.117

>  <InChIkey>
HVAMZGADVCBITI-UHFFFAOYSA-N

>  <parent_SMILES>
C=CCCC(=O)O

>  <parent_InChI>
InChI=1S/C5H8O2/c1-2-3-4-5(6)7/h2H,1,3-4H2,(H,6,7)

>  <parent_InChIkey>
HVAMZGADVCBITI-UHFFFAOYSA-N

>  <parent_AMW>
100.117

>  <UniChem>
20

>  <UniChem_wide>
86

>  <heavy_atoms>
7

>  <rotatable_bonds>
3

>  <aromatic_rings>
0

>  <AlogP>
1.0372

>  <PSA>
37.3

>  <HBA>
1

>  <HBD>
1

>  <QED_weighted>
0.5451606605

>  <Lipinski_violations>
0

>  <RO3_pass>
1

>  <NETCHARGE>
-0.9985

>  <ABUNDANCE>
99.85% at pH 7.4

$$$$

     RDKit          3D

 22 22  0  0  0  0  0  0  0  0999 V2000
    3.2081    0.0466   -0.0022 C   0  0  0  0  0  0  0  0  0  0  0  0
    1.7012    0.0306    0.0024 C   0  0  0  0  0  0  0  0  0  0  0  0
    0.9979    1.2207   -0.0071 C   0  0  0  0  0  0  0  0  0  0  0  0
   -0.3850    1.2094   -0.0028 C   0  0  0  0  0  0  0  0  0  0  0  0
   -1.1485    2.5086   -0.0127 C   0  0  0  0  0  0  0  0  0  0  0  0
   -1.0669    0.0084    0.0100 C   0  0  0  0  0  0  0  0  0  0  0  0
   -2.5739   -0.0032    0.0136 C   0  0  0  0  0  0  0  0  0  0  0  0
   -0.3633   -1.1875    0.0191 C   0  0  0  0  0  0  0  0  0  0  0  0
   -1.0320   -2.3706    0.0312 O   0  0  0  0  0  0  0  0  0  0  0  0
    1.0237   -1.1735    0.0104 C   0  0  0  0  0  0  0  0  0  0  0  0
    3.5745    0.0604    1.0243 H   0  0  0  0  0  0  0  0  0  0  0  0
    3.5793   -0.8445   -0.5085 H   0  0  0  0  0  0  0  0  0  0  0  0
    3.5604    0.9353   -0.5258 H   0  0  0  0  0  0  0  0  0  0  0  0
    1.5293    2.1609   -0.0175 H   0  0  0  0  0  0  0  0  0  0  0  0
   -1.3356    2.8123   -1.0427 H   0  0  0  0  0  0  0  0  0  0  0  0
   -2.0983    2.3758    0.5052 H   0  0  0  0  0  0  0  0  0  0  0  0
   -0.5638    3.2776    0.4922 H   0  0  0  0  0  0  0  0  0  0  0  0
   -2.9396   -0.0156   -1.0132 H   0  0  0  0  0  0  0  0  0  0  0  0
   -2.9291   -0.8911    0.5366 H   0  0  0  0  0  0  0  0  0  0  0  0
   -2.9429    0.8887    0.5199 H   0  0  0  0  0  0  0  0  0  0  0  0
   -1.2276   -2.7209   -0.8486 H   0  0  0  0  0  0  0  0  0  0  0  0
    1.5736   -2.1030    0.0174 H   0  0  0  0  0  0  0  0  0  0  0  0
  1  2  1  0
  1 11  1  0
  1 12  1  0
  1 13  1  0
  2  3  2  0
  2 10  1  0
  3  4  1  0
  3 14  1  0
  4  5  1  0
  4  6  2  0
  5 15  1  0
  5 16  1  0
  5 17  1  0
  6  7  1  0
  6  8  1  0
  7 18  1  0
  7 19  1  0
  7 20  1  0
  8  9  1  0
  8 10  2  0
  9 21  1  0
 10 22  1  0
M  END
>  <molID>
mol000030

>  <CAS>
697-82-5

>  <name>
2,3,5-Trimethylphenol

>  <activity>
na

>  <SMILES>
Cc1cc(C)c(C)c(O)c1

>  <InChI>
InChI=1S/C9H12O/c1-6-4-7(2)8(3)9(10)5-6/h4-5,10H,1-3H3

>  <AMW>
136.194

>  <InChIkey>
OGRAOKJKVGDSFR-UHFFFAOYSA-N

>  <parent_SMILES>
Cc1cc(C)c(C)c(O)c1

>  <parent_InChI>
InChI=1S/C9H12O/c1-6-4-7(2)8(3)9(10)5-6/h4-5,10H,1-3H3

>  <parent_InChIkey>
OGRAOKJKVGDSFR-UHFFFAOYSA-N

>  <parent_AMW>
136.194

>  <UniChem>
16

>  <UniChem_wide>
52

>  <heavy_atoms>
10

>  <rotatable_bonds>
0

>  <aromatic_rings>
1

>  <AlogP>
2.31746

>  <PSA>
20.23

>  <HBA>
1

>  <HBD>
1

>  <QED_weighted>
0.5807646933

>  <Lipinski_violations>
0

>  <RO3_pass>
1

>  <NETCHARGE>
-0.0005967

>  <ABUNDANCE>
99.94% at pH 7.4

$$$$

     RDKit          3D

 23 23  0  0  0  0  0  0  0  0999 V2000
    2.5148    1.7094    0.0161 C   0  0  0  0  0  0  0  0  0  0  0  0
    1.2050    0.9641    0.0147 C   0  0  0  0  0  0  0  0  0  0  0  0
    0.0133    1.6622    0.0144 C   0  0  0  0  0  0  0  0  0  0  0  0
   -1.1924    0.9761    0.0132 C   0  0  0  0  0  0  0  0  0  0  0  0
   -2.3658    1.6634    0.0129 O   0  0  0  0  0  0  0  0  0  0  0  0
   -1.2011   -0.4106    0.0117 C   0  0  0  0  0  0  0  0  0  0  0  0
   -2.5109   -1.1559    0.0099 C   0  0  0  0  0  0  0  0  0  0  0  0
   -0.0090   -1.1089    0.0115 C   0  0  0  0  0  0  0  0  0  0  0  0
   -0.0185   -2.6159    0.0094 C   0  0  0  0  0  0  0  0  0  0  0  0
    1.1963   -0.4230    0.0079 C   0  0  0  0  0  0  0  0  0  0  0  0
    2.3696   -1.1103    0.0078 O   0  0  0  0  0  0  0  0  0  0  0  0
    2.8299    1.8884    1.0440 H   0  0  0  0  0  0  0  0  0  0  0  0
    3.2710    1.1159   -0.4977 H   0  0  0  0  0  0  0  0  0  0  0  0
    2.3907    2.6630   -0.4972 H   0  0  0  0  0  0  0  0  0  0  0  0
    0.0200    2.7421    0.0156 H   0  0  0  0  0  0  0  0  0  0  0  0
   -2.7046    1.8628   -0.8705 H   0  0  0  0  0  0  0  0  0  0  0  0
   -2.8259   -1.3345   -1.0182 H   0  0  0  0  0  0  0  0  0  0  0  0
   -2.3870   -2.1097    0.5228 H   0  0  0  0  0  0  0  0  0  0  0  0
   -3.2673   -0.5626    0.5237 H   0  0  0  0  0  0  0  0  0  0  0  0
   -0.0201   -2.9778   -1.0187 H   0  0  0  0  0  0  0  0  0  0  0  0
    0.8688   -2.9855    0.5233 H   0  0  0  0  0  0  0  0  0  0  0  0
   -0.9111   -2.9743    0.5222 H   0  0  0  0  0  0  0  0  0  0  0  0
    2.7076   -1.3113   -0.8757 H   0  0  0  0  0  0  0  0  0  0  0  0
  1  2  1  0
  1 12  1  0
  1 13  1  0
  1 14  1  0
  2  3  2  0
  2 10  1  0
  3  4  1  0
  3 15  1  0
  4  5  1  0
  4  6  2  0
  5 16  1  0
  6  7  1  0
  6  8  1  0
  7 17  1  0
  7 18  1  0
  7 19  1  0
  8  9  1  0
  8 10  2  0
  9 20  1  0
  9 21  1  0
  9 22  1  0
 10 11  1  0
 11 23  1  0
M  END
>  <molID>
mol000031

>  <CAS>
700-13-0

>  <name>
2,3,5-Trimethylhydroquinone

>  <activity>
na

>  <SMILES>
Cc1cc(O)c(C)c(C)c1O

>  <InChI>
InChI=1S/C9H12O2/c1-5-4-8(10)6(2)7(3)9(5)11/h4,10-11H,1-3H3

>  <AMW>
152.193

>  <InChIkey>
AUFZRCJENRSRLY-UHFFFAOYSA-N

>  <parent_SMILES>
Cc1cc(O)c(C)c(C)c1O

>  <parent_InChI>
InChI=1S/C9H12O2/c1-5-4-8(10)6(2)7(3)9(5)11/h4,10-11H,1-3H3

>  <parent_InChIkey>
AUFZRCJENRSRLY-UHFFFAOYSA-N

>  <parent_AMW>
152.193

>  <UniChem>
15

>  <UniChem_wide>
48

>  <heavy_atoms>
11

>  <rotatable_bonds>
0

>  <aromatic_rings>
1

>  <AlogP>
2.02306

>  <PSA>
40.46

>  <HBA>
2

>  <HBD>
2

>  <QED_weighted>
0.5609343341

>  <Lipinski_violations>
0

>  <RO3_pass>
1

>  <NETCHARGE>
-0.0001617

>  <ABUNDANCE>
99.98% at pH 7.4

$$$$

     RDKit          3D

 16 15  0  0  0  0  0  0  0  0999 V2000
    1.3003    1.3443    0.0000 C   0  0  0  0  0  0  0  0  0  0  0  0
    0.6438   -0.0377   -0.0000 C   0  0  0  0  0  0  0  0  0  0  0  0
    1.0764   -0.8078   -1.2493 C   0  0  0  0  0  0  0  0  0  0  0  0
    1.0764   -0.8078    1.2492 C   0  0  0  0  0  0  0  0  0  0  0  0
   -0.8551    0.1183    0.0000 C   0  0  0  0  0  0  0  0  0  0  0  0
   -1.3477    1.2216    0.0000 O   0  0  0  0  0  0  0  0  0  0  0  0
   -1.6429   -0.9685   -0.0000 O   0  0  0  0  0  0  0  0  0  0  0  0
    0.9921    1.8930   -0.8899 H   0  0  0  0  0  0  0  0  0  0  0  0
    0.9921    1.8930    0.8900 H   0  0  0  0  0  0  0  0  0  0  0  0
    2.3845    1.2315    0.0000 H   0  0  0  0  0  0  0  0  0  0  0  0
    2.1606   -0.9206   -1.2493 H   0  0  0  0  0  0  0  0  0  0  0  0
    0.6087   -1.7923   -1.2493 H   0  0  0  0  0  0  0  0  0  0  0  0
    0.7682   -0.2591   -2.1392 H   0  0  0  0  0  0  0  0  0  0  0  0
    0.7682   -0.2592    2.1392 H   0  0  0  0  0  0  0  0  0  0  0  0
    0.6087   -1.7924    1.2492 H   0  0  0  0  0  0  0  0  0  0  0  0
    2.1606   -0.9206    1.2492 H   0  0  0  0  0  0  0  0  0  0  0  0
  1  2  1  0
  1  8  1  0
  1  9  1  0
  1 10  1  0
  2  3  1  0
  2  4  1  0
  2  5  1  0
  3 11  1  0
  3 12  1  0
  3 13  1  0
  4 14  1  0
  4 15  1  0
  4 16  1  0
  5  6  2  0
  5  7  1  0
M  CHG  1   7  -1
M  END
>  <molID>
mol000032

>  <CAS>
75-98-9

>  <name>
2,2-Dimethylpropanoic acid

>  <activity>
negative

>  <SMILES>
CC(C)(C)C(=O)O

>  <InChI>
InChI=1S/C5H10O2/c1-5(2,3)4(6)7/h1-3H3,(H,6,7)

>  <AMW>
102.133

>  <InChIkey>
IUGYQRQAERSCNH-UHFFFAOYSA-N

>  <parent_SMILES>
CC(C)(C)C(=O)O

>  <parent_InChI>
InChI=1S/C5H10O2/c1-5(2,3)4(6)7/h1-3H3,(H,6,7)

>  <parent_InChIkey>
IUGYQRQAERSCNH-UHFFFAOYSA-N

>  <parent_AMW>
102.133

>  <UniChem>
25

>  <UniChem_wide>
25

>  <heavy_atoms>
7

>  <rotatable_bonds>
0

>  <aromatic_rings>
0

>  <AlogP>
1.1171

>  <PSA>
37.3

>  <HBA>
1

>  <HBD>
1

>  <QED_weighted>
0.503688379

>  <Lipinski_violations>
0

>  <RO3_pass>
1

>  <NETCHARGE>
-0.9955

>  <ABUNDANCE>
99.55% at pH 7.4

$$$$

     RDKit          3D

 10  9  0  0  0  0  0  0  0  0999 V2000
    1.9971   -0.0660   -0.0000 C   0  0  0  0  0  0  0  0  0  0  0  0
    0.7573    0.8305   -0.0000 C   0  0  0  0  0  0  0  0  0  0  0  0
   -0.4824   -0.0264    0.0000 C   0  0  0  0  0  0  0  0  0  0  0  0
   -0.3843   -1.2307    0.0000 O   0  0  0  0  0  0  0  0  0  0  0  0
   -1.6955    0.5481   -0.0000 O   0  0  0  0  0  0  0  0  0  0  0  0
    1.9904   -0.6953    0.8900 H   0  0  0  0  0  0  0  0  0  0  0  0
    1.9904   -0.6953   -0.8900 H   0  0  0  0  0  0  0  0  0  0  0  0
    2.8937    0.5538   -0.0000 H   0  0  0  0  0  0  0  0  0  0  0  0
    0.7639    1.4598    0.8900 H   0  0  0  0  0  0  0  0  0  0  0  0
    0.7639    1.4598   -0.8900 H   0  0  0  0  0  0  0  0  0  0  0  0
  1  2  1  0
  1  6  1  0
  1  7  1  0
  1  8  1  0
  2  3  1  0
  2  9  1  0
  2 10  1  0
  3  4  2  0
  3  5  1  0
M  CHG  1   5  -1
M  END
>  <molID>
mol000033

>  <CAS>
79-09-4

>  <name>
Propionic acid

>  <activity>
negative

>  <SMILES>
CCC(=O)O

>  <InChI>
InChI=1S/C3H6O2/c1-2-3(4)5/h2H2,1H3,(H,4,5)

>  <AMW>
74.079

>  <InChIkey>
XBDQKXXYIPTUBI-UHFFFAOYSA-N

>  <parent_SMILES>
CCC(=O)O

>  <parent_InChI>
InChI=1S/C3H6O2/c1-2-3(4)5/h2H2,1H3,(H,4,5)

>  <parent_InChIkey>
XBDQKXXYIPTUBI-UHFFFAOYSA-N

>  <parent_AMW>
74.079

>  <UniChem>
36

>  <UniChem_wide>
36

>  <heavy_atoms>
5

>  <rotatable_bonds>
1

>  <aromatic_rings>
0

>  <AlogP>
0.481

>  <PSA>
37.3

>  <HBA>
1

>  <HBD>
1

>  <QED_weighted>
0.5008816635

>  <Lipinski_violations>
0

>  <RO3_pass>
1

>  <NETCHARGE>
-0.9983

>  <ABUNDANCE>
99.83% at pH 7.4

$$$$

     RDKit          3D

 26 28  0  0  0  0  0  0  0  0999 V2000
   -2.8143    1.5569   -0.1966 C   0  0  0  0  0  0  0  0  0  0  0  0
   -3.4634    0.3391   -0.0557 C   0  0  0  0  0  0  0  0  0  0  0  0
   -2.7174   -0.8103    0.1266 C   0  0  0  0  0  0  0  0  0  0  0  0
   -1.3995   -0.7687    0.1699 N   0  0  0  0  0  0  0  0  0  0  0  0
   -0.7425    0.3756    0.0200 C   0  0  0  0  0  0  0  0  0  0  0  0
   -1.4304    1.5730   -0.1581 C   0  0  0  0  0  0  0  0  0  0  0  0
    0.7431    0.3736    0.0173 C   0  0  0  0  0  0  0  0  0  0  0  0
    1.4369    1.5690    0.1763 C   0  0  0  0  0  0  0  0  0  0  0  0
    2.8213    1.5521    0.1856 C   0  0  0  0  0  0  0  0  0  0  0  0
    3.4653    0.3341    0.0236 C   0  0  0  0  0  0  0  0  0  0  0  0
    2.7137   -0.8118   -0.1553 C   0  0  0  0  0  0  0  0  0  0  0  0
    1.3948   -0.7703   -0.1662 N   0  0  0  0  0  0  0  0  0  0  0  0
    0.6422   -2.0075   -0.3978 C   0  0  0  0  0  0  0  0  0  0  0  0
   -0.6491   -2.0052    0.4148 C   0  0  0  0  0  0  0  0  0  0  0  0
   -3.3746    2.4694   -0.3374 H   0  0  0  0  0  0  0  0  0  0  0  0
   -4.5418    0.2895   -0.0877 H   0  0  0  0  0  0  0  0  0  0  0  0
   -3.2222   -1.7588    0.2359 H   0  0  0  0  0  0  0  0  0  0  0  0
   -0.8912    2.5028   -0.2642 H   0  0  0  0  0  0  0  0  0  0  0  0
    0.9015    2.5000    0.2909 H   0  0  0  0  0  0  0  0  0  0  0  0
    3.3855    2.4638    0.3152 H   0  0  0  0  0  0  0  0  0  0  0  0
    4.5440    0.2819    0.0369 H   0  0  0  0  0  0  0  0  0  0  0  0
    3.2152   -1.7589   -0.2890 H   0  0  0  0  0  0  0  0  0  0  0  0
    0.4010   -2.0898   -1.4576 H   0  0  0  0  0  0  0  0  0  0  0  0
    1.2523   -2.8612   -0.1026 H   0  0  0  0  0  0  0  0  0  0  0  0
   -0.4085   -2.0775    1.4754 H   0  0  0  0  0  0  0  0  0  0  0  0
   -1.2591   -2.8610    0.1260 H   0  0  0  0  0  0  0  0  0  0  0  0
  1  2  2  0
  1  6  1  0
  1 15  1  0
  2  3  1  0
  2 16  1  0
  3  4  2  0
  3 17  1  0
  4  5  1  0
  4 14  1  0
  5  6  2  0
  5  7  1  0
  6 18  1  0
  7  8  2  0
  7 12  1  0
  8  9  1  0
  8 19  1  0
  9 10  2  0
  9 20  1  0
 10 11  1  0
 10 21  1  0
 11 12  2  0
 11 22  1  0
 12 13  1  0
 13 14  1  0
 13 23  1  0
 13 24  1  0
 14 25  1  0
 14 26  1  0
M  CHG  2   4   1  12   1
M  END
>  <molID>
mol000034

>  <CAS>
85-00-7

>  <name>
Diquat dibromide

>  <activity>
na

>  <SMILES>
[Br-].[Br-].c1cc[n+]2c(c1)-c1cccc[n+]1CC2

>  <InChI>
InChI=1S/C12H12N2.2BrH/c1-3-7-13-9-10-14-8-4-2-6-12(14)11(13)5-1;;/h1-8H,9-10H2;2*1H/q+2;;/p-2

>  <AMW>
344.05

>  <InChIkey>
ODPOAESBSUKMHD-UHFFFAOYSA-L

>  <parent_SMILES>
c1cc[n+]2c(c1)-c1cccc[n+]1CC2

>  <parent_InChI>
InChI=1S/C12H12N2/c1-3-7-13-9-10-14-8-4-2-6-12(14)11(13)5-1/h1-8H,9-10H2/q+2

>  <parent_InChIkey>
SYJFEGQWDCRVNX-UHFFFAOYSA-N

>  <parent_AMW>
184.242

>  <UniChem>
11

>  <UniChem_wide>
133

>  <heavy_atoms>
14

>  <rotatable_bonds>
0

>  <aromatic_rings>
2

>  <AlogP>
0.9422

>  <PSA>
7.76

>  <HBA>
0

>  <HBD>
0

>  <QED_weighted>
0.5462696875

>  <Lipinski_violations>
0

>  <RO3_pass>
1

>  <NETCHARGE>
na

>  <ABUNDANCE>
No species found

$$$$

     RDKit          3D

 19 18  0  0  0  0  0  0  0  0999 V2000
    2.7720    0.5362   -0.0678 C   0  0  0  0  0  0  0  0  0  0  0  0
    1.3616    0.9647    0.3418 C   0  0  0  0  0  0  0  0  0  0  0  0
    0.3377    0.0190   -0.2893 C   0  0  0  0  0  0  0  0  0  0  0  0
    0.5049   -1.3820    0.3024 C   0  0  0  0  0  0  0  0  0  0  0  0
   -0.4050   -2.3616   -0.4414 C   0  0  0  0  0  0  0  0  0  0  0  0
   -1.0538    0.5222   -0.0037 C   0  0  0  0  0  0  0  0  0  0  0  0
   -1.8319   -0.1688    0.6102 O   0  0  0  0  0  0  0  0  0  0  0  0
   -1.4287    1.7381   -0.4312 O   0  0  0  0  0  0  0  0  0  0  0  0
    3.4949    1.2617    0.3053 H   0  0  0  0  0  0  0  0  0  0  0  0
    2.9907   -0.4447    0.3542 H   0  0  0  0  0  0  0  0  0  0  0  0
    2.8353    0.4863   -1.1548 H   0  0  0  0  0  0  0  0  0  0  0  0
    1.2710    0.9261    1.4274 H   0  0  0  0  0  0  0  0  0  0  0  0
    1.1767    1.9823   -0.0022 H   0  0  0  0  0  0  0  0  0  0  0  0
    0.4957   -0.0205   -1.3671 H   0  0  0  0  0  0  0  0  0  0  0  0
    1.5425   -1.6990    0.1981 H   0  0  0  0  0  0  0  0  0  0  0  0
    0.2346   -1.3651    1.3583 H   0  0  0  0  0  0  0  0  0  0  0  0
   -1.4471   -2.0978   -0.2614 H   0  0  0  0  0  0  0  0  0  0  0  0
   -0.1967   -2.3111   -1.5101 H   0  0  0  0  0  0  0  0  0  0  0  0
   -0.2193   -3.3740   -0.0825 H   0  0  0  0  0  0  0  0  0  0  0  0
  1  2  1  0
  1  9  1  0
  1 10  1  0
  1 11  1  0
  2  3  1  0
  2 12  1  0
  2 13  1  0
  3  4  1  0
  3  6  1  0
  3 14  1  0
  4  5  1  0
  4 15  1  0
  4 16  1  0
  5 17  1  0
  5 18  1  0
  5 19  1  0
  6  7  2  0
  6  8  1  0
M  CHG  1   8  -1
M  END
>  <molID>
mol000035

>  <CAS>
88-09-5

>  <name>
2-Ethylbutyric acid

>  <activity>
negative

>  <SMILES>
CCC(CC)C(=O)O

>  <InChI>
InChI=1S/C6H12O2/c1-3-5(4-2)6(7)8/h5H,3-4H2,1-2H3,(H,7,8)

>  <AMW>
116.16

>  <InChIkey>
OXQGTIUCKGYOAA-UHFFFAOYSA-N

>  <parent_SMILES>
CCC(CC)C(=O)O

>  <parent_InChI>
InChI=1S/C6H12O2/c1-3-5(4-2)6(7)8/h5H,3-4H2,1-2H3,(H,7,8)

>  <parent_InChIkey>
OXQGTIUCKGYOAA-UHFFFAOYSA-N

>  <parent_AMW>
116.16

>  <UniChem>
19

>  <UniChem_wide>
343

>  <heavy_atoms>
8

>  <rotatable_bonds>
3

>  <aromatic_rings>
0

>  <AlogP>
1.5072

>  <PSA>
37.3

>  <HBA>
1

>  <HBD>
1

>  <QED_weighted>
0.6122200648

>  <Lipinski_violations>
0

>  <RO3_pass>
1

>  <NETCHARGE>
-0.9967

>  <ABUNDANCE>
99.67% at pH 7.4

$$$$

     RDKit          3D

 25 25  0  0  0  0  0  0  0  0999 V2000
    2.0126    1.6978   -0.0168 C   0  0  0  0  0  0  0  0  0  0  0  0
    1.5008    0.2561    0.0037 C   0  0  0  0  0  0  0  0  0  0  0  0
    2.0103   -0.4836   -1.2349 C   0  0  0  0  0  0  0  0  0  0  0  0
    2.0096   -0.4478    1.2633 C   0  0  0  0  0  0  0  0  0  0  0  0
   -0.0062    0.2579    0.0032 C   0  0  0  0  0  0  0  0  0  0  0  0
   -0.6959    1.4545   -0.0142 C   0  0  0  0  0  0  0  0  0  0  0  0
   -2.0788    1.4568   -0.0146 C   0  0  0  0  0  0  0  0  0  0  0  0
   -2.7744    0.2622    0.0024 C   0  0  0  0  0  0  0  0  0  0  0  0
   -2.0891   -0.9374    0.0203 C   0  0  0  0  0  0  0  0  0  0  0  0
   -0.7020   -0.9425    0.0145 C   0  0  0  0  0  0  0  0  0  0  0  0
   -0.0256   -2.1211    0.0321 O   0  0  0  0  0  0  0  0  0  0  0  0
    1.6501    2.1993   -0.9142 H   0  0  0  0  0  0  0  0  0  0  0  0
    1.6496    2.2248    0.8656 H   0  0  0  0  0  0  0  0  0  0  0  0
    3.1026    1.6965   -0.0165 H   0  0  0  0  0  0  0  0  0  0  0  0
    3.1003   -0.4850   -1.2345 H   0  0  0  0  0  0  0  0  0  0  0  0
    1.6457   -1.5108   -1.2203 H   0  0  0  0  0  0  0  0  0  0  0  0
    1.6479    0.0178   -2.1323 H   0  0  0  0  0  0  0  0  0  0  0  0
    1.6466    0.0792    2.1457 H   0  0  0  0  0  0  0  0  0  0  0  0
    1.6450   -1.4749    1.2780 H   0  0  0  0  0  0  0  0  0  0  0  0
    3.0996   -0.4491    1.2637 H   0  0  0  0  0  0  0  0  0  0  0  0
   -0.1548    2.3890   -0.0271 H   0  0  0  0  0  0  0  0  0  0  0  0
   -2.6163    2.3935   -0.0278 H   0  0  0  0  0  0  0  0  0  0  0  0
   -3.8544    0.2667    0.0020 H   0  0  0  0  0  0  0  0  0  0  0  0
   -2.6330   -1.8703    0.0340 H   0  0  0  0  0  0  0  0  0  0  0  0
    0.1664   -2.4775   -0.8461 H   0  0  0  0  0  0  0  0  0  0  0  0
  1  2  1  0
  1 12  1  0
  1 13  1  0
  1 14  1  0
  2  3  1  0
  2  4  1  0
  2  5  1  0
  3 15  1  0
  3 16  1  0
  3 17  1  0
  4 18  1  0
  4 19  1  0
  4 20  1  0
  5  6  2  0
  5 10  1  0
  6  7  1  0
  6 21  1  0
  7  8  2  0
  7 22  1  0
  8  9  1  0
  8 23  1  0
  9 10  2  0
  9 24  1  0
 10 11  1  0
 11 25  1  0
M  END
>  <molID>
mol000036

>  <CAS>
88-18-6

>  <name>
2-tert-Butylphenol

>  <activity>
na

>  <SMILES>
CC(C)(C)c1ccccc1O

>  <InChI>
InChI=1S/C10H14O/c1-10(2,3)8-6-4-5-7-9(8)11/h4-7,11H,1-3H3

>  <AMW>
150.221

>  <InChIkey>
WJQOZHYUIDYNHM-UHFFFAOYSA-N

>  <parent_SMILES>
CC(C)(C)c1ccccc1O

>  <parent_InChI>
InChI=1S/C10H14O/c1-10(2,3)8-6-4-5-7-9(8)11/h4-7,11H,1-3H3

>  <parent_InChIkey>
WJQOZHYUIDYNHM-UHFFFAOYSA-N

>  <parent_AMW>
150.221

>  <UniChem>
18

>  <UniChem_wide>
288

>  <heavy_atoms>
11

>  <rotatable_bonds>
0

>  <aromatic_rings>
1

>  <AlogP>
2.6897

>  <PSA>
20.23

>  <HBA>
1

>  <HBD>
1

>  <QED_weighted>
0.5999314436

>  <Lipinski_violations>
0

>  <RO3_pass>
1

>  <NETCHARGE>
-0.00105

>  <ABUNDANCE>
99.9% at pH 7.4

$$$$

     RDKit          3D

 37 37  0  0  0  0  0  0  0  0999 V2000
    3.7914    0.7630    0.0008 C   0  0  0  0  0  0  0  0  0  0  0  0
    2.7429   -0.3512   -0.0042 C   0  0  0  0  0  0  0  0  0  0  0  0
    2.9156   -1.2084   -1.2597 C   0  0  0  0  0  0  0  0  0  0  0  0
    2.9217   -1.2253    1.2387 C   0  0  0  0  0  0  0  0  0  0  0  0
    1.3639    0.2566    0.0032 C   0  0  0  0  0  0  0  0  0  0  0  0
    1.2156    1.6310    0.0129 C   0  0  0  0  0  0  0  0  0  0  0  0
   -0.0476    2.1907    0.0201 C   0  0  0  0  0  0  0  0  0  0  0  0
   -1.1675    1.3723    0.0173 C   0  0  0  0  0  0  0  0  0  0  0  0
   -2.4111    1.9204    0.0240 O   0  0  0  0  0  0  0  0  0  0  0  0
   -1.0160   -0.0069    0.0072 C   0  0  0  0  0  0  0  0  0  0  0  0
   -2.2306   -0.8990    0.0035 C   0  0  0  0  0  0  0  0  0  0  0  0
   -1.7877   -2.3635   -0.0079 C   0  0  0  0  0  0  0  0  0  0  0  0
   -3.0658   -0.6285    1.2566 C   0  0  0  0  0  0  0  0  0  0  0  0
   -3.0714   -0.6108   -1.2418 C   0  0  0  0  0  0  0  0  0  0  0  0
    0.2490   -0.5615   -0.0053 C   0  0  0  0  0  0  0  0  0  0  0  0
    3.6640    1.3858   -0.8847 H   0  0  0  0  0  0  0  0  0  0  0  0
    3.6683    1.3737    0.8952 H   0  0  0  0  0  0  0  0  0  0  0  0
    4.7888    0.3234   -0.0046 H   0  0  0  0  0  0  0  0  0  0  0  0
    3.9130   -1.6480   -1.2651 H   0  0  0  0  0  0  0  0  0  0  0  0
    2.1687   -2.0023   -1.2633 H   0  0  0  0  0  0  0  0  0  0  0  0
    2.7883   -0.5857   -2.1452 H   0  0  0  0  0  0  0  0  0  0  0  0
    2.7986   -0.6146    2.1331 H   0  0  0  0  0  0  0  0  0  0  0  0
    2.1747   -2.0191    1.2352 H   0  0  0  0  0  0  0  0  0  0  0  0
    3.9191   -1.6649    1.2333 H   0  0  0  0  0  0  0  0  0  0  0  0
    2.0879    2.2678    0.0151 H   0  0  0  0  0  0  0  0  0  0  0  0
   -0.1629    3.2645    0.0284 H   0  0  0  0  0  0  0  0  0  0  0  0
   -2.7731    2.0850   -0.8574 H   0  0  0  0  0  0  0  0  0  0  0  0
   -1.1887   -2.5688    0.8793 H   0  0  0  0  0  0  0  0  0  0  0  0
   -2.6662   -3.0087   -0.0105 H   0  0  0  0  0  0  0  0  0  0  0  0
   -1.1927   -2.5562   -0.9006 H   0  0  0  0  0  0  0  0  0  0  0  0
   -3.3813    0.4148    1.2647 H   0  0  0  0  0  0  0  0  0  0  0  0
   -3.9443   -1.2738    1.2540 H   0  0  0  0  0  0  0  0  0  0  0  0
   -2.4668   -0.8339    2.1438 H   0  0  0  0  0  0  0  0  0  0  0  0
   -2.4764   -0.8035   -2.1345 H   0  0  0  0  0  0  0  0  0  0  0  0
   -3.9499   -1.2560   -1.2444 H   0  0  0  0  0  0  0  0  0  0  0  0
   -3.3869    0.4325   -1.2337 H   0  0  0  0  0  0  0  0  0  0  0  0
    0.3674   -1.6349   -0.0136 H   0  0  0  0  0  0  0  0  0  0  0  0
  1  2  1  0
  1 16  1  0
  1 17  1  0
  1 18  1  0
  2  3  1  0
  2  4  1  0
  2  5  1  0
  3 19  1  0
  3 20  1  0
  3 21  1  0
  4 22  1  0
  4 23  1  0
  4 24  1  0
  5  6  2  0
  5 15  1  0
  6  7  1  0
  6 25  1  0
  7  8  2  0
  7 26  1  0
  8  9  1  0
  8 10  1  0
  9 27  1  0
 10 11  1  0
 10 15  2  0
 11 12  1  0
 11 13  1  0
 11 14  1  0
 12 28  1  0
 12 29  1  0
 12 30  1  0
 13 31  1  0
 13 32  1  0
 13 33  1  0
 14 34  1  0
 14 35  1  0
 14 36  1  0
 15 37  1  0
M  END
>  <molID>
mol000037

>  <CAS>
96-76-4

>  <name>
2,4-Di-tert-butylphenol

>  <activity>
na

>  <SMILES>
CC(C)(C)c1ccc(O)c(C(C)(C)C)c1

>  <InChI>
InChI=1S/C14H22O/c1-13(2,3)10-7-8-12(15)11(9-10)14(4,5)6/h7-9,15H,1-6H3

>  <AMW>
206.329

>  <InChIkey>
ICKWICRCANNIBI-UHFFFAOYSA-N

>  <parent_SMILES>
CC(C)(C)c1ccc(O)c(C(C)(C)C)c1

>  <parent_InChI>
InChI=1S/C14H22O/c1-13(2,3)10-7-8-12(15)11(9-10)14(4,5)6/h7-9,15H,1-6H3

>  <parent_InChIkey>
ICKWICRCANNIBI-UHFFFAOYSA-N

>  <parent_AMW>
206.329

>  <UniChem>
19

>  <UniChem_wide>
271

>  <heavy_atoms>
15

>  <rotatable_bonds>
0

>  <aromatic_rings>
1

>  <AlogP>
3.9872

>  <PSA>
20.23

>  <HBA>
1

>  <HBD>
1

>  <QED_weighted>
0.656446366

>  <Lipinski_violations>
0

>  <RO3_pass>
0

>  <NETCHARGE>
-0.0002833

>  <ABUNDANCE>
99.97% at pH 7.4

$$$$

     RDKit          3D

 19 18  0  0  0  0  0  0  0  0999 V2000
    3.4353    0.5203    0.0525 C   0  0  0  0  0  0  0  0  0  0  0  0
    2.2251   -0.3373   -0.3226 C   0  0  0  0  0  0  0  0  0  0  0  0
    0.9395    0.4037    0.0506 C   0  0  0  0  0  0  0  0  0  0  0  0
   -0.2707   -0.4539   -0.3246 C   0  0  0  0  0  0  0  0  0  0  0  0
   -0.2764   -1.7270    0.5240 C   0  0  0  0  0  0  0  0  0  0  0  0
   -1.5359    0.3245   -0.0711 C   0  0  0  0  0  0  0  0  0  0  0  0
   -1.4759    1.4497    0.3649 O   0  0  0  0  0  0  0  0  0  0  0  0
   -2.7297   -0.2322   -0.3296 O   0  0  0  0  0  0  0  0  0  0  0  0
    3.4254    0.7131    1.1253 H   0  0  0  0  0  0  0  0  0  0  0  0
    4.3511   -0.0076   -0.2133 H   0  0  0  0  0  0  0  0  0  0  0  0
    3.3915    1.4663   -0.4871 H   0  0  0  0  0  0  0  0  0  0  0  0
    2.2349   -0.5301   -1.3954 H   0  0  0  0  0  0  0  0  0  0  0  0
    2.2688   -1.2833    0.2170 H   0  0  0  0  0  0  0  0  0  0  0  0
    0.9297    0.5965    1.1233 H   0  0  0  0  0  0  0  0  0  0  0  0
    0.8958    1.3497   -0.4891 H   0  0  0  0  0  0  0  0  0  0  0  0
   -0.2137   -0.7209   -1.3799 H   0  0  0  0  0  0  0  0  0  0  0  0
   -1.1386   -2.3379    0.2568 H   0  0  0  0  0  0  0  0  0  0  0  0
    0.6387   -2.2900    0.3407 H   0  0  0  0  0  0  0  0  0  0  0  0
   -0.3334   -1.4599    1.5793 H   0  0  0  0  0  0  0  0  0  0  0  0
  1  2  1  0
  1  9  1  0
  1 10  1  0
  1 11  1  0
  2  3  1  0
  2 12  1  0
  2 13  1  0
  3  4  1  0
  3 14  1  0
  3 15  1  0
  4  5  1  0
  4  6  1  0
  4 16  1  0
  5 17  1  0
  5 18  1  0
  5 19  1  0
  6  7  2  0
  6  8  1  0
M  CHG  1   8  -1
M  END
>  <molID>
mol000038

>  <CAS>
97-61-0

>  <name>
2-Methylpentanoic acid

>  <activity>
negative

>  <SMILES>
CCCC(C)C(=O)O

>  <InChI>
InChI=1S/C6H12O2/c1-3-4-5(2)6(7)8/h5H,3-4H2,1-2H3,(H,7,8)

>  <AMW>
116.16

>  <InChIkey>
OVBFMEVBMNZIBR-UHFFFAOYSA-N

>  <parent_SMILES>
CCCC(C)C(=O)O

>  <parent_InChI>
InChI=1S/C6H12O2/c1-3-4-5(2)6(7)8/h5H,3-4H2,1-2H3,(H,7,8)

>  <parent_InChIkey>
OVBFMEVBMNZIBR-UHFFFAOYSA-N

>  <parent_AMW>
116.16

>  <UniChem>
19

>  <UniChem_wide>
103

>  <heavy_atoms>
8

>  <rotatable_bonds>
3

>  <aromatic_rings>
0

>  <AlogP>
1.5072

>  <PSA>
37.3

>  <HBA>
1

>  <HBD>
1

>  <QED_weighted>
0.6122200648

>  <Lipinski_violations>
0

>  <RO3_pass>
1

>  <NETCHARGE>
-0.9968

>  <ABUNDANCE>
99.68% at pH 7.4

$$$$

     RDKit          3D

 25 25  0  0  0  0  0  0  0  0999 V2000
    2.4602    0.7227    1.2408 C   0  0  0  0  0  0  0  0  0  0  0  0
    1.9432   -0.0000   -0.0046 C   0  0  0  0  0  0  0  0  0  0  0  0
    2.4461    0.7197   -1.2576 C   0  0  0  0  0  0  0  0  0  0  0  0
    2.4532   -1.4425   -0.0058 C   0  0  0  0  0  0  0  0  0  0  0  0
    0.4362    0.0000    0.0038 C   0  0  0  0  0  0  0  0  0  0  0  0
   -0.2539    1.1981    0.0063 C   0  0  0  0  0  0  0  0  0  0  0  0
   -1.6354    1.2008    0.0145 C   0  0  0  0  0  0  0  0  0  0  0  0
   -2.3302    0.0000    0.0199 C   0  0  0  0  0  0  0  0  0  0  0  0
   -3.6892    0.0000    0.0275 O   0  0  0  0  0  0  0  0  0  0  0  0
   -1.6354   -1.2008    0.0169 C   0  0  0  0  0  0  0  0  0  0  0  0
   -0.2540   -1.1981    0.0035 C   0  0  0  0  0  0  0  0  0  0  0  0
    2.0969    1.7504    1.2417 H   0  0  0  0  0  0  0  0  0  0  0  0
    2.1019    0.2100    2.1335 H   0  0  0  0  0  0  0  0  0  0  0  0
    3.5502    0.7227    1.2347 H   0  0  0  0  0  0  0  0  0  0  0  0
    3.5361    0.7197   -1.2637 H   0  0  0  0  0  0  0  0  0  0  0  0
    2.0778    0.2048   -2.1449 H   0  0  0  0  0  0  0  0  0  0  0  0
    2.0828    1.7474   -1.2568 H   0  0  0  0  0  0  0  0  0  0  0  0
    2.0948   -1.9553    0.8869 H   0  0  0  0  0  0  0  0  0  0  0  0
    2.0848   -1.9574   -0.8931 H   0  0  0  0  0  0  0  0  0  0  0  0
    3.5431   -1.4425   -0.0119 H   0  0  0  0  0  0  0  0  0  0  0  0
    0.2874    2.1326    0.0021 H   0  0  0  0  0  0  0  0  0  0  0  0
   -2.1740    2.1369    0.0171 H   0  0  0  0  0  0  0  0  0  0  0  0
   -4.0874   -0.0010   -0.8537 H   0  0  0  0  0  0  0  0  0  0  0  0
   -2.1740   -2.1369    0.0215 H   0  0  0  0  0  0  0  0  0  0  0  0
    0.2874   -2.1326    0.0008 H   0  0  0  0  0  0  0  0  0  0  0  0
  1  2  1  0
  1 12  1  0
  1 13  1  0
  1 14  1  0
  2  3  1  0
  2  4  1  0
  2  5  1  0
  3 15  1  0
  3 16  1  0
  3 17  1  0
  4 18  1  0
  4 19  1  0
  4 20  1  0
  5  6  2  0
  5 11  1  0
  6  7  1  0
  6 21  1  0
  7  8  2  0
  7 22  1  0
  8  9  1  0
  8 10  1  0
  9 23  1  0
 10 11  2  0
 10 24  1  0
 11 25  1  0
M  END
>  <molID>
mol000039

>  <CAS>
98-54-4

>  <name>
4-tert-Butylphenol

>  <activity>
na

>  <SMILES>
CC(C)(C)c1ccc(O)cc1

>  <InChI>
InChI=1S/C10H14O/c1-10(2,3)8-4-6-9(11)7-5-8/h4-7,11H,1-3H3

>  <AMW>
150.221

>  <InChIkey>
QHPQWRBYOIRBIT-UHFFFAOYSA-N

>  <parent_SMILES>
CC(C)(C)c1ccc(O)cc1

>  <parent_InChI>
InChI=1S/C10H14O/c1-10(2,3)8-4-6-9(11)7-5-8/h4-7,11H,1-3H3

>  <parent_InChIkey>
QHPQWRBYOIRBIT-UHFFFAOYSA-N

>  <parent_AMW>
150.221

>  <UniChem>
21

>  <UniChem_wide>
405

>  <heavy_atoms>
11

>  <rotatable_bonds>
0

>  <aromatic_rings>
1

>  <AlogP>
2.6897

>  <PSA>
20.23

>  <HBA>
1

>  <HBD>
1

>  <QED_weighted>
0.5999314436

>  <Lipinski_violations>
0

>  <RO3_pass>
1

>  <NETCHARGE>
-0.001454

>  <ABUNDANCE>
99.85% at pH 7.4

$$$$

     RDKit          3D

 25 24  0  0  0  0  0  0  0  0999 V2000
    3.7875   -0.9660    0.0596 C   0  0  0  0  0  0  0  0  0  0  0  0
    2.5099   -0.3259   -0.4872 C   0  0  0  0  0  0  0  0  0  0  0  0
    1.2939   -0.9361    0.2128 C   0  0  0  0  0  0  0  0  0  0  0  0
    0.0163   -0.2960   -0.3339 C   0  0  0  0  0  0  0  0  0  0  0  0
   -1.2032   -0.9918    0.2740 C   0  0  0  0  0  0  0  0  0  0  0  0
   -2.4780   -0.4373   -0.3650 C   0  0  0  0  0  0  0  0  0  0  0  0
   -3.6975   -1.1331    0.2429 C   0  0  0  0  0  0  0  0  0  0  0  0
   -0.0075    1.1666    0.0282 C   0  0  0  0  0  0  0  0  0  0  0  0
    0.9039    1.6478    0.6589 O   0  0  0  0  0  0  0  0  0  0  0  0
   -1.0412    1.9349   -0.3499 O   0  0  0  0  0  0  0  0  0  0  0  0
    3.8556   -0.7826    1.1319 H   0  0  0  0  0  0  0  0  0  0  0  0
    3.7633   -2.0401   -0.1245 H   0  0  0  0  0  0  0  0  0  0  0  0
    4.6538   -0.5313   -0.4391 H   0  0  0  0  0  0  0  0  0  0  0  0
    2.5341    0.7481   -0.3031 H   0  0  0  0  0  0  0  0  0  0  0  0
    2.4418   -0.5093   -1.5595 H   0  0  0  0  0  0  0  0  0  0  0  0
    1.2697   -2.0101    0.0288 H   0  0  0  0  0  0  0  0  0  0  0  0
    1.3620   -0.7526    1.2851 H   0  0  0  0  0  0  0  0  0  0  0  0
   -0.0079   -0.4022   -1.4185 H   0  0  0  0  0  0  0  0  0  0  0  0
   -1.1401   -2.0640    0.0878 H   0  0  0  0  0  0  0  0  0  0  0  0
   -1.2269   -0.8105    1.3485 H   0  0  0  0  0  0  0  0  0  0  0  0
   -2.5410    0.6348   -0.1788 H   0  0  0  0  0  0  0  0  0  0  0  0
   -2.4543   -0.6187   -1.4396 H   0  0  0  0  0  0  0  0  0  0  0  0
   -3.6344   -2.2053    0.0567 H   0  0  0  0  0  0  0  0  0  0  0  0
   -3.7211   -0.9518    1.3174 H   0  0  0  0  0  0  0  0  0  0  0  0
   -4.6056   -0.7381   -0.2124 H   0  0  0  0  0  0  0  0  0  0  0  0
  1  2  1  0
  1 11  1  0
  1 12  1  0
  1 13  1  0
  2  3  1  0
  2 14  1  0
  2 15  1  0
  3  4  1  0
  3 16  1  0
  3 17  1  0
  4  5  1  0
  4  8  1  0
  4 18  1  0
  5  6  1  0
  5 19  1  0
  5 20  1  0
  6  7  1  0
  6 21  1  0
  6 22  1  0
  7 23  1  0
  7 24  1  0
  7 25  1  0
  8  9  2  0
  8 10  1  0
M  CHG  1  10  -1
M  END
>  <molID>
mol000040

>  <CAS>
99-66-1

>  <name>
Valproic acid

>  <activity>
positive

>  <SMILES>
CCCC(CCC)C(=O)O

>  <InChI>
InChI=1S/C8H16O2/c1-3-5-7(6-4-2)8(9)10/h7H,3-6H2,1-2H3,(H,9,10)

>  <AMW>
144.214

>  <InChIkey>
NIJJYAXOARWZEE-UHFFFAOYSA-N

>  <parent_SMILES>
CCCC(CCC)C(=O)O

>  <parent_InChI>
InChI=1S/C8H16O2/c1-3-5-7(6-4-2)8(9)10/h7H,3-6H2,1-2H3,(H,9,10)

>  <parent_InChIkey>
NIJJYAXOARWZEE-UHFFFAOYSA-N

>  <parent_AMW>
144.214

>  <UniChem>
30

>  <UniChem_wide>
465

>  <heavy_atoms>
10

>  <rotatable_bonds>
5

>  <aromatic_rings>
0

>  <AlogP>
2.2874

>  <PSA>
37.3

>  <HBA>
1

>  <HBD>
1

>  <QED_weighted>
0.643541179

>  <Lipinski_violations>
0

>  <RO3_pass>
0

>  <NETCHARGE>
-0.9963

>  <ABUNDANCE>
99.63% at pH 7.4

$$$$
