
     RDKit          3D

 17 18  0  0  0  0  0  0  0  0999 V2000
    0.0383    2.3650   -1.2282 C   0  0  0  0  0  0  0  0  0  0  0  0
    0.0030    1.4708    0.0127 C   0  0  0  0  0  0  0  0  0  0  0  0
   -0.0289    2.3431    1.2692 C   0  0  0  0  0  0  0  0  0  0  0  0
   -1.2287    0.6034   -0.0280 C   0  0  0  0  0  0  0  0  0  0  0  0
   -2.1828    0.7124    0.9668 C   0  0  0  0  0  0  0  0  0  0  0  0
   -3.3125   -0.0819    0.9320 C   0  0  0  0  0  0  0  0  0  0  0  0
   -3.4896   -0.9890   -0.1026 C   0  0  0  0  0  0  0  0  0  0  0  0
   -4.6004   -1.7712   -0.1393 O   0  0  0  0  0  0  0  0  0  0  0  0
   -2.5311   -1.0961   -1.0998 C   0  0  0  0  0  0  0  0  0  0  0  0
   -1.4056   -0.2959   -1.0632 C   0  0  0  0  0  0  0  0  0  0  0  0
    1.2313    0.5980    0.0381 C   0  0  0  0  0  0  0  0  0  0  0  0
    2.2245    0.7766   -0.9071 C   0  0  0  0  0  0  0  0  0  0  0  0
    3.3512   -0.0224   -0.8862 C   0  0  0  0  0  0  0  0  0  0  0  0
    3.4859   -1.0044    0.0845 C   0  0  0  0  0  0  0  0  0  0  0  0
    4.5936   -1.7914    0.1074 O   0  0  0  0  0  0  0  0  0  0  0  0
    2.4882   -1.1812    1.0321 C   0  0  0  0  0  0  0  0  0  0  0  0
    1.3658   -0.3761    1.0101 C   0  0  0  0  0  0  0  0  0  0  0  0
  1  2  1  0
  2  3  1  0
  2  4  1  0
  2 11  1  0
  4  5  2  0
  4 10  1  0
  5  6  1  0
  6  7  2  0
  7  8  1  0
  7  9  1  0
  9 10  2  0
 11 12  2  0
 11 17  1  0
 12 13  1  0
 13 14  2  0
 14 15  1  0
 14 16  1  0
 16 17  2  0
M  END
>  <ABUNDANCE>
99.55% at pH 7.4

>  <NETCHARGE>
-0.004516

>  <ToxCast_chid>
20182

>  <inchi>
InChI=1S/C15H16O2/c1-15(2,11-3-7-13(16)8-4-11)12-5-9-14(17)10-6-12/h3-10,16-17H,1-2H3

>  <parent_inchi>
InChI=1S/C15H16O2/c1-15(2,11-3-7-13(16)8-4-11)12-5-9-14(17)10-6-12/h3-10,16-17H,1-2H3

>  <parent_inchikey>
IISBACLAFKSPIT-UHFFFAOYSA-N

>  <parent_smiles>
CC(C)(c1ccc(O)cc1)c1ccc(O)cc1

>  <smiles>
CC(C)(C1=CC=C(O)C=C1)C1=CC=C(O)C=C1

>  <MODEL_molID>
mol000039

>  <MODEL_CAS>
98-54-4

>  <MODEL_name>
4-tert-Butylphenol

>  <MODEL_activity>
na

>  <MODEL_SMILES>
CC(C)(C)c1ccc(O)cc1

>  <MODEL_InChI>
InChI=1S/C10H14O/c1-10(2,3)8-4-6-9(11)7-5-8/h4-7,11H,1-3H3

>  <MODEL_AMW>
150.221

>  <MODEL_InChIkey>
QHPQWRBYOIRBIT-UHFFFAOYSA-N

>  <MODEL_parent_SMILES>
CC(C)(C)c1ccc(O)cc1

>  <MODEL_parent_InChI>
InChI=1S/C10H14O/c1-10(2,3)8-4-6-9(11)7-5-8/h4-7,11H,1-3H3

>  <MODEL_parent_InChIkey>
QHPQWRBYOIRBIT-UHFFFAOYSA-N

>  <MODEL_parent_AMW>
150.221

>  <MODEL_UniChem>
21

>  <MODEL_UniChem_wide>
405

>  <MODEL_heavy_atoms>
11

>  <MODEL_rotatable_bonds>
0

>  <MODEL_aromatic_rings>
1

>  <MODEL_AlogP>
2.6897

>  <MODEL_PSA>
20.23

>  <MODEL_HBA>
1

>  <MODEL_HBD>
1

>  <MODEL_QED_weighted>
0.5999314436

>  <MODEL_Lipinski_violations>
0

>  <MODEL_RO3_pass>
1

>  <MODEL_NETCHARGE>
-0.001454

>  <MODEL_ABUNDANCE>
99.85% at pH 7.4

>  <similarity>
0.722222222222

$$$$

     RDKit          3D

 11 10  0  0  0  0  0  0  0  0999 V2000
    4.9481   -0.4563    0.0000 O   0  0  0  0  0  0  0  0  0  0  0  0
    3.7289    0.1054   -0.0000 C   0  0  0  0  0  0  0  0  0  0  0  0
    3.6181    1.3086   -0.0000 O   0  0  0  0  0  0  0  0  0  0  0  0
    2.4985   -0.7646    0.0000 C   0  0  0  0  0  0  0  0  0  0  0  0
    1.2492    0.1188   -0.0000 C   0  0  0  0  0  0  0  0  0  0  0  0
   -0.0000   -0.7645    0.0000 C   0  0  0  0  0  0  0  0  0  0  0  0
   -1.2492    0.1189   -0.0000 C   0  0  0  0  0  0  0  0  0  0  0  0
   -2.4985   -0.7645    0.0000 C   0  0  0  0  0  0  0  0  0  0  0  0
   -3.7289    0.1056   -0.0000 C   0  0  0  0  0  0  0  0  0  0  0  0
   -4.9481   -0.4560    0.0000 O   0  0  0  0  0  0  0  0  0  0  0  0
   -3.6180    1.3088   -0.0000 O   0  0  0  0  0  0  0  0  0  0  0  0
  1  2  1  0
  2  3  2  0
  2  4  1  0
  4  5  1  0
  5  6  1  0
  6  7  1  0
  7  8  1  0
  8  9  1  0
  9 10  1  0
  9 11  2  0
M  CHG  2   1  -1  10  -1
M  END
>  <ABUNDANCE>
98.73% at pH 7.4

>  <NETCHARGE>
-1.987

>  <ToxCast_chid>
21598

>  <inchi>
InChI=1S/C7H12O4/c8-6(9)4-2-1-3-5-7(10)11/h1-5H2,(H,8,9)(H,10,11)

>  <parent_inchi>
InChI=1S/C7H12O4/c8-6(9)4-2-1-3-5-7(10)11/h1-5H2,(H,8,9)(H,10,11)

>  <parent_inchikey>
WLJVNTCWHIRURA-UHFFFAOYSA-N

>  <parent_smiles>
O=C(O)CCCCCC(=O)O

>  <smiles>
OC(=O)CCCCCC(O)=O

>  <MODEL_molID>
mol000011

>  <MODEL_CAS>
124-07-2

>  <MODEL_name>
Octanoic acid

>  <MODEL_activity>
negative

>  <MODEL_SMILES>
CCCCCCCC(=O)O

>  <MODEL_InChI>
InChI=1S/C8H16O2/c1-2-3-4-5-6-7-8(9)10/h2-7H2,1H3,(H,9,10)

>  <MODEL_AMW>
144.214

>  <MODEL_InChIkey>
WWZKQHOCKIZLMA-UHFFFAOYSA-N

>  <MODEL_parent_SMILES>
CCCCCCCC(=O)O

>  <MODEL_parent_InChI>
InChI=1S/C8H16O2/c1-2-3-4-5-6-7-8(9)10/h2-7H2,1H3,(H,9,10)

>  <MODEL_parent_InChIkey>
WWZKQHOCKIZLMA-UHFFFAOYSA-N

>  <MODEL_parent_AMW>
144.214

>  <MODEL_UniChem>
31

>  <MODEL_UniChem_wide>
31

>  <MODEL_heavy_atoms>
10

>  <MODEL_rotatable_bonds>
6

>  <MODEL_aromatic_rings>
0

>  <MODEL_AlogP>
2.4315

>  <MODEL_PSA>
37.3

>  <MODEL_HBA>
1

>  <MODEL_HBD>
1

>  <MODEL_QED_weighted>
0.5810743743

>  <MODEL_Lipinski_violations>
0

>  <MODEL_RO3_pass>
0

>  <MODEL_NETCHARGE>
-0.9977

>  <MODEL_ABUNDANCE>
99.77% at pH 7.4

>  <similarity>
0.722222222222

$$$$

     RDKit          3D

 18 17  0  0  0  0  0  0  0  0999 V2000
   -8.8851    2.8496   -0.3218 C   0  0  0  0  0  0  0  0  0  0  0  0
   -8.3004    1.5755    0.2910 C   0  0  0  0  0  0  0  0  0  0  0  0
   -6.9247    1.3006   -0.3195 C   0  0  0  0  0  0  0  0  0  0  0  0
   -6.3401    0.0264    0.2933 C   0  0  0  0  0  0  0  0  0  0  0  0
   -4.9644   -0.2484   -0.3172 C   0  0  0  0  0  0  0  0  0  0  0  0
   -4.3798   -1.5226    0.2957 C   0  0  0  0  0  0  0  0  0  0  0  0
   -3.0247   -1.7933   -0.3057 C   0  0  0  0  0  0  0  0  0  0  0  0
   -1.9804   -1.9391    0.4717 C   0  0  0  0  0  0  0  0  0  0  0  0
   -0.6254   -2.2098   -0.1297 C   0  0  0  0  0  0  0  0  0  0  0  0
    0.3713   -1.1600    0.3655 C   0  0  0  0  0  0  0  0  0  0  0  0
    1.7470   -1.4348   -0.2450 C   0  0  0  0  0  0  0  0  0  0  0  0
    2.7437   -0.3849    0.2502 C   0  0  0  0  0  0  0  0  0  0  0  0
    4.1195   -0.6598   -0.3604 C   0  0  0  0  0  0  0  0  0  0  0  0
    5.1162    0.3901    0.1348 C   0  0  0  0  0  0  0  0  0  0  0  0
    6.4919    0.1153   -0.4757 C   0  0  0  0  0  0  0  0  0  0  0  0
    7.4736    1.1494    0.0120 C   0  0  0  0  0  0  0  0  0  0  0  0
    8.7517    1.1064   -0.3958 O   0  0  0  0  0  0  0  0  0  0  0  0
    7.1102    2.0171    0.7702 O   0  0  0  0  0  0  0  0  0  0  0  0
  1  2  1  0
  2  3  1  0
  3  4  1  0
  4  5  1  0
  5  6  1  0
  6  7  1  0
  7  8  2  0
  8  9  1  0
  9 10  1  0
 10 11  1  0
 11 12  1  0
 12 13  1  0
 13 14  1  0
 14 15  1  0
 15 16  1  0
 16 17  1  0
 16 18  2  0
M  CHG  1  17  -1
M  END
>  <ABUNDANCE>
99.77% at pH 7.4

>  <NETCHARGE>
-0.9977

>  <ToxCast_chid>
21603

>  <inchi>
InChI=1S/C16H30O2/c1-2-3-4-5-6-7-8-9-10-11-12-13-14-15-16(17)18/h7-8H,2-6,9-15H2,1H3,(H,17,18)/b8-7+

>  <parent_inchi>
InChI=1S/C16H30O2/c1-2-3-4-5-6-7-8-9-10-11-12-13-14-15-16(17)18/h7-8H,2-6,9-15H2,1H3,(H,17,18)/b8-7+

>  <parent_inchikey>
SECPZKHBENQXJG-BQYQJAHWSA-N

>  <parent_smiles>
CCCCCC/C=C/CCCCCCCC(=O)O

>  <smiles>
CCCCCC\C=C\CCCCCCCC(O)=O

>  <MODEL_molID>
mol000011

>  <MODEL_CAS>
124-07-2

>  <MODEL_name>
Octanoic acid

>  <MODEL_activity>
negative

>  <MODEL_SMILES>
CCCCCCCC(=O)O

>  <MODEL_InChI>
InChI=1S/C8H16O2/c1-2-3-4-5-6-7-8(9)10/h2-7H2,1H3,(H,9,10)

>  <MODEL_AMW>
144.214

>  <MODEL_InChIkey>
WWZKQHOCKIZLMA-UHFFFAOYSA-N

>  <MODEL_parent_SMILES>
CCCCCCCC(=O)O

>  <MODEL_parent_InChI>
InChI=1S/C8H16O2/c1-2-3-4-5-6-7-8(9)10/h2-7H2,1H3,(H,9,10)

>  <MODEL_parent_InChIkey>
WWZKQHOCKIZLMA-UHFFFAOYSA-N

>  <MODEL_parent_AMW>
144.214

>  <MODEL_UniChem>
31

>  <MODEL_UniChem_wide>
31

>  <MODEL_heavy_atoms>
10

>  <MODEL_rotatable_bonds>
6

>  <MODEL_aromatic_rings>
0

>  <MODEL_AlogP>
2.4315

>  <MODEL_PSA>
37.3

>  <MODEL_HBA>
1

>  <MODEL_HBD>
1

>  <MODEL_QED_weighted>
0.5810743743

>  <MODEL_Lipinski_violations>
0

>  <MODEL_RO3_pass>
0

>  <MODEL_NETCHARGE>
-0.9977

>  <MODEL_ABUNDANCE>
99.77% at pH 7.4

>  <similarity>
0.75

$$$$

     RDKit          3D

 13 12  0  0  0  0  0  0  0  0999 V2000
    6.1973   -0.4082    0.0000 O   0  0  0  0  0  0  0  0  0  0  0  0
    4.9782    0.1535   -0.0000 C   0  0  0  0  0  0  0  0  0  0  0  0
    4.8674    1.3567   -0.0000 O   0  0  0  0  0  0  0  0  0  0  0  0
    3.7477   -0.7165    0.0000 C   0  0  0  0  0  0  0  0  0  0  0  0
    2.4985    0.1669   -0.0000 C   0  0  0  0  0  0  0  0  0  0  0  0
    1.2492   -0.7164    0.0000 C   0  0  0  0  0  0  0  0  0  0  0  0
    0.0000    0.1669   -0.0000 C   0  0  0  0  0  0  0  0  0  0  0  0
   -1.2493   -0.7164    0.0000 C   0  0  0  0  0  0  0  0  0  0  0  0
   -2.4985    0.1670   -0.0000 C   0  0  0  0  0  0  0  0  0  0  0  0
   -3.7477   -0.7163    0.0000 C   0  0  0  0  0  0  0  0  0  0  0  0
   -4.9782    0.1538   -0.0000 C   0  0  0  0  0  0  0  0  0  0  0  0
   -6.1973   -0.4078    0.0000 O   0  0  0  0  0  0  0  0  0  0  0  0
   -4.8673    1.3570   -0.0000 O   0  0  0  0  0  0  0  0  0  0  0  0
  1  2  1  0
  2  3  2  0
  2  4  1  0
  4  5  1  0
  5  6  1  0
  6  7  1  0
  7  8  1  0
  8  9  1  0
  9 10  1  0
 10 11  1  0
 11 12  1  0
 11 13  2  0
M  CHG  2   1  -1  12  -1
M  END
>  <ABUNDANCE>
99.55% at pH 7.4

>  <NETCHARGE>
-1.995

>  <ToxCast_chid>
21640

>  <inchi>
InChI=1S/C9H16O4/c10-8(11)6-4-2-1-3-5-7-9(12)13/h1-7H2,(H,10,11)(H,12,13)

>  <parent_inchi>
InChI=1S/C9H16O4/c10-8(11)6-4-2-1-3-5-7-9(12)13/h1-7H2,(H,10,11)(H,12,13)

>  <parent_inchikey>
BDJRBEYXGGNYIS-UHFFFAOYSA-N

>  <parent_smiles>
O=C(O)CCCCCCCC(=O)O

>  <smiles>
OC(=O)CCCCCCCC(O)=O

>  <MODEL_molID>
mol000011

>  <MODEL_CAS>
124-07-2

>  <MODEL_name>
Octanoic acid

>  <MODEL_activity>
negative

>  <MODEL_SMILES>
CCCCCCCC(=O)O

>  <MODEL_InChI>
InChI=1S/C8H16O2/c1-2-3-4-5-6-7-8(9)10/h2-7H2,1H3,(H,9,10)

>  <MODEL_AMW>
144.214

>  <MODEL_InChIkey>
WWZKQHOCKIZLMA-UHFFFAOYSA-N

>  <MODEL_parent_SMILES>
CCCCCCCC(=O)O

>  <MODEL_parent_InChI>
InChI=1S/C8H16O2/c1-2-3-4-5-6-7-8(9)10/h2-7H2,1H3,(H,9,10)

>  <MODEL_parent_InChIkey>
WWZKQHOCKIZLMA-UHFFFAOYSA-N

>  <MODEL_parent_AMW>
144.214

>  <MODEL_UniChem>
31

>  <MODEL_UniChem_wide>
31

>  <MODEL_heavy_atoms>
10

>  <MODEL_rotatable_bonds>
6

>  <MODEL_aromatic_rings>
0

>  <MODEL_AlogP>
2.4315

>  <MODEL_PSA>
37.3

>  <MODEL_HBA>
1

>  <MODEL_HBD>
1

>  <MODEL_QED_weighted>
0.5810743743

>  <MODEL_Lipinski_violations>
0

>  <MODEL_RO3_pass>
0

>  <MODEL_NETCHARGE>
-0.9977

>  <MODEL_ABUNDANCE>
99.77% at pH 7.4

>  <similarity>
0.722222222222

$$$$

     RDKit          3D

 12 11  0  0  0  0  0  0  0  0999 V2000
    5.5369   -0.6445   -0.0001 O   0  0  0  0  0  0  0  0  0  0  0  0
    4.3745    0.0267   -0.0001 C   0  0  0  0  0  0  0  0  0  0  0  0
    4.3746    1.2350   -0.0001 O   0  0  0  0  0  0  0  0  0  0  0  0
    3.0693   -0.7267   -0.0001 C   0  0  0  0  0  0  0  0  0  0  0  0
    1.9065    0.2677   -0.0000 C   0  0  0  0  0  0  0  0  0  0  0  0
    0.5814   -0.4972   -0.0000 C   0  0  0  0  0  0  0  0  0  0  0  0
   -0.5814    0.4972    0.0000 C   0  0  0  0  0  0  0  0  0  0  0  0
   -1.9065   -0.2677    0.0000 C   0  0  0  0  0  0  0  0  0  0  0  0
   -3.0693    0.7267    0.0001 C   0  0  0  0  0  0  0  0  0  0  0  0
   -4.3745   -0.0267    0.0001 C   0  0  0  0  0  0  0  0  0  0  0  0
   -5.5369    0.6445    0.0001 O   0  0  0  0  0  0  0  0  0  0  0  0
   -4.3746   -1.2350    0.0001 O   0  0  0  0  0  0  0  0  0  0  0  0
  1  2  1  0
  2  3  2  0
  2  4  1  0
  4  5  1  0
  5  6  1  0
  6  7  1  0
  7  8  1  0
  8  9  1  0
  9 10  1  0
 10 11  1  0
 10 12  2  0
M  CHG  2   1  -1  11  -1
M  END
>  <ABUNDANCE>
99.55% at pH 7.4

>  <NETCHARGE>
-1.995

>  <ToxCast_chid>
21644

>  <inchi>
InChI=1S/C8H14O4/c9-7(10)5-3-1-2-4-6-8(11)12/h1-6H2,(H,9,10)(H,11,12)

>  <parent_inchi>
InChI=1S/C8H14O4/c9-7(10)5-3-1-2-4-6-8(11)12/h1-6H2,(H,9,10)(H,11,12)

>  <parent_inchikey>
TYFQFVWCELRYAO-UHFFFAOYSA-N

>  <parent_smiles>
O=C(O)CCCCCCC(=O)O

>  <smiles>
OC(=O)CCCCCCC(O)=O

>  <MODEL_molID>
mol000011

>  <MODEL_CAS>
124-07-2

>  <MODEL_name>
Octanoic acid

>  <MODEL_activity>
negative

>  <MODEL_SMILES>
CCCCCCCC(=O)O

>  <MODEL_InChI>
InChI=1S/C8H16O2/c1-2-3-4-5-6-7-8(9)10/h2-7H2,1H3,(H,9,10)

>  <MODEL_AMW>
144.214

>  <MODEL_InChIkey>
WWZKQHOCKIZLMA-UHFFFAOYSA-N

>  <MODEL_parent_SMILES>
CCCCCCCC(=O)O

>  <MODEL_parent_InChI>
InChI=1S/C8H16O2/c1-2-3-4-5-6-7-8(9)10/h2-7H2,1H3,(H,9,10)

>  <MODEL_parent_InChIkey>
WWZKQHOCKIZLMA-UHFFFAOYSA-N

>  <MODEL_parent_AMW>
144.214

>  <MODEL_UniChem>
31

>  <MODEL_UniChem_wide>
31

>  <MODEL_heavy_atoms>
10

>  <MODEL_rotatable_bonds>
6

>  <MODEL_aromatic_rings>
0

>  <MODEL_AlogP>
2.4315

>  <MODEL_PSA>
37.3

>  <MODEL_HBA>
1

>  <MODEL_HBD>
1

>  <MODEL_QED_weighted>
0.5810743743

>  <MODEL_Lipinski_violations>
0

>  <MODEL_RO3_pass>
0

>  <MODEL_NETCHARGE>
-0.9977

>  <MODEL_ABUNDANCE>
99.77% at pH 7.4

>  <similarity>
0.722222222222

$$$$

     RDKit          3D

 17 16  0  0  0  0  0  0  0  0999 V2000
    8.6958   -0.3452    0.0000 O   0  0  0  0  0  0  0  0  0  0  0  0
    7.4767    0.2165   -0.0000 C   0  0  0  0  0  0  0  0  0  0  0  0
    7.3658    1.4197   -0.0000 O   0  0  0  0  0  0  0  0  0  0  0  0
    6.2462   -0.6535    0.0000 C   0  0  0  0  0  0  0  0  0  0  0  0
    4.9970    0.2299   -0.0000 C   0  0  0  0  0  0  0  0  0  0  0  0
    3.7477   -0.6534    0.0000 C   0  0  0  0  0  0  0  0  0  0  0  0
    2.4985    0.2300   -0.0000 C   0  0  0  0  0  0  0  0  0  0  0  0
    1.2492   -0.6534    0.0000 C   0  0  0  0  0  0  0  0  0  0  0  0
    0.0000    0.2300   -0.0000 C   0  0  0  0  0  0  0  0  0  0  0  0
   -1.2493   -0.6533    0.0000 C   0  0  0  0  0  0  0  0  0  0  0  0
   -2.4985    0.2301   -0.0000 C   0  0  0  0  0  0  0  0  0  0  0  0
   -3.7477   -0.6532    0.0000 C   0  0  0  0  0  0  0  0  0  0  0  0
   -4.9970    0.2302   -0.0000 C   0  0  0  0  0  0  0  0  0  0  0  0
   -6.2462   -0.6531    0.0000 C   0  0  0  0  0  0  0  0  0  0  0  0
   -7.4767    0.2170   -0.0000 C   0  0  0  0  0  0  0  0  0  0  0  0
   -8.6958   -0.3447    0.0000 O   0  0  0  0  0  0  0  0  0  0  0  0
   -7.3658    1.4201   -0.0000 O   0  0  0  0  0  0  0  0  0  0  0  0
  1  2  1  0
  2  3  2  0
  2  4  1  0
  4  5  1  0
  5  6  1  0
  6  7  1  0
  7  8  1  0
  8  9  1  0
  9 10  1  0
 10 11  1  0
 11 12  1  0
 12 13  1  0
 13 14  1  0
 14 15  1  0
 15 16  1  0
 15 17  2  0
M  CHG  2   1  -1  16  -1
M  END
>  <ABUNDANCE>
99.55% at pH 7.4

>  <NETCHARGE>
-1.995

>  <ToxCast_chid>
21683

>  <inchi>
InChI=1S/C13H24O4/c14-12(15)10-8-6-4-2-1-3-5-7-9-11-13(16)17/h1-11H2,(H,14,15)(H,16,17)

>  <parent_inchi>
InChI=1S/C13H24O4/c14-12(15)10-8-6-4-2-1-3-5-7-9-11-13(16)17/h1-11H2,(H,14,15)(H,16,17)

>  <parent_inchikey>
DXNCZXXFRKPEPY-UHFFFAOYSA-N

>  <parent_smiles>
O=C(O)CCCCCCCCCCCC(=O)O

>  <smiles>
OC(=O)CCCCCCCCCCCC(O)=O

>  <MODEL_molID>
mol000011

>  <MODEL_CAS>
124-07-2

>  <MODEL_name>
Octanoic acid

>  <MODEL_activity>
negative

>  <MODEL_SMILES>
CCCCCCCC(=O)O

>  <MODEL_InChI>
InChI=1S/C8H16O2/c1-2-3-4-5-6-7-8(9)10/h2-7H2,1H3,(H,9,10)

>  <MODEL_AMW>
144.214

>  <MODEL_InChIkey>
WWZKQHOCKIZLMA-UHFFFAOYSA-N

>  <MODEL_parent_SMILES>
CCCCCCCC(=O)O

>  <MODEL_parent_InChI>
InChI=1S/C8H16O2/c1-2-3-4-5-6-7-8(9)10/h2-7H2,1H3,(H,9,10)

>  <MODEL_parent_InChIkey>
WWZKQHOCKIZLMA-UHFFFAOYSA-N

>  <MODEL_parent_AMW>
144.214

>  <MODEL_UniChem>
31

>  <MODEL_UniChem_wide>
31

>  <MODEL_heavy_atoms>
10

>  <MODEL_rotatable_bonds>
6

>  <MODEL_aromatic_rings>
0

>  <MODEL_AlogP>
2.4315

>  <MODEL_PSA>
37.3

>  <MODEL_HBA>
1

>  <MODEL_HBD>
1

>  <MODEL_QED_weighted>
0.5810743743

>  <MODEL_Lipinski_violations>
0

>  <MODEL_RO3_pass>
0

>  <MODEL_NETCHARGE>
-0.9977

>  <MODEL_ABUNDANCE>
99.77% at pH 7.4

>  <similarity>
0.722222222222

$$$$

     RDKit          3D

 31 32  0  0  0  0  0  0  0  0999 V2000
   -2.7251    3.6686   -0.3224 C   0  0  0  0  0  0  0  0  0  0  0  0
   -3.5391    2.5070    0.2510 C   0  0  0  0  0  0  0  0  0  0  0  0
   -3.5387    2.5891    1.7788 C   0  0  0  0  0  0  0  0  0  0  0  0
   -4.9776    2.5892   -0.2637 C   0  0  0  0  0  0  0  0  0  0  0  0
   -2.9245    1.2009   -0.1820 C   0  0  0  0  0  0  0  0  0  0  0  0
   -1.7952    1.1984   -0.9776 C   0  0  0  0  0  0  0  0  0  0  0  0
   -1.2311    0.0005   -1.3756 C   0  0  0  0  0  0  0  0  0  0  0  0
    0.0006    0.0007   -2.2439 C   0  0  0  0  0  0  0  0  0  0  0  0
    1.2298    0.0004   -1.3721 C   0  0  0  0  0  0  0  0  0  0  0  0
    1.7927   -1.1978   -0.9732 C   0  0  0  0  0  0  0  0  0  0  0  0
    2.9195   -1.2008   -0.1740 C   0  0  0  0  0  0  0  0  0  0  0  0
    3.4865   -0.0002    0.2280 C   0  0  0  0  0  0  0  0  0  0  0  0
    4.5953   -0.0004    1.0138 O   0  0  0  0  0  0  0  0  0  0  0  0
    2.9201    1.2008   -0.1740 C   0  0  0  0  0  0  0  0  0  0  0  0
    1.7961    1.1983   -0.9771 C   0  0  0  0  0  0  0  0  0  0  0  0
    3.5334    2.5068    0.2609 C   0  0  0  0  0  0  0  0  0  0  0  0
    2.7214    3.6685   -0.3153 C   0  0  0  0  0  0  0  0  0  0  0  0
    3.5281    2.5891    1.7886 C   0  0  0  0  0  0  0  0  0  0  0  0
    4.9736    2.5888   -0.2493 C   0  0  0  0  0  0  0  0  0  0  0  0
    3.5319   -2.5071    0.2613 C   0  0  0  0  0  0  0  0  0  0  0  0
    2.7190   -3.6684   -0.3145 C   0  0  0  0  0  0  0  0  0  0  0  0
    4.9720   -2.5903   -0.2489 C   0  0  0  0  0  0  0  0  0  0  0  0
    3.5266   -2.5890    1.7891 C   0  0  0  0  0  0  0  0  0  0  0  0
   -1.7950   -1.1977   -0.9779 C   0  0  0  0  0  0  0  0  0  0  0  0
   -2.9243   -1.2006   -0.1823 C   0  0  0  0  0  0  0  0  0  0  0  0
   -3.4891    0.0000    0.2227 C   0  0  0  0  0  0  0  0  0  0  0  0
   -4.5999   -0.0002    1.0058 O   0  0  0  0  0  0  0  0  0  0  0  0
   -3.5390   -2.5070    0.2499 C   0  0  0  0  0  0  0  0  0  0  0  0
   -2.7249   -3.6683   -0.3243 C   0  0  0  0  0  0  0  0  0  0  0  0
   -3.5385   -2.5900    1.7776 C   0  0  0  0  0  0  0  0  0  0  0  0
   -4.9774   -2.5888   -0.2649 C   0  0  0  0  0  0  0  0  0  0  0  0
  1  2  1  0
  2  3  1  0
  2  4  1  0
  2  5  1  0
  5  6  2  0
  5 26  1  0
  6  7  1  0
  7  8  1  0
  7 24  2  0
  8  9  1  0
  9 10  2  0
  9 15  1  0
 10 11  1  0
 11 12  2  0
 11 20  1  0
 12 13  1  0
 12 14  1  0
 14 15  2  0
 14 16  1  0
 16 17  1  0
 16 18  1  0
 16 19  1  0
 20 21  1  0
 20 22  1  0
 20 23  1  0
 24 25  1  0
 25 26  2  0
 25 28  1  0
 26 27  1  0
 28 29  1  0
 28 30  1  0
 28 31  1  0
M  END
>  <ABUNDANCE>
99.98% at pH 7.4

>  <NETCHARGE>
-0.0001527

>  <ToxCast_chid>
22411

>  <inchi>
InChI=1S/C29H44O2/c1-26(2,3)20-14-18(15-21(24(20)30)27(4,5)6)13-19-16-22(28(7,8)9)25(31)23(17-19)29(10,11)12/h14-17,30-31H,13H2,1-12H3

>  <parent_inchi>
InChI=1S/C29H44O2/c1-26(2,3)20-14-18(15-21(24(20)30)27(4,5)6)13-19-16-22(28(7,8)9)25(31)23(17-19)29(10,11)12/h14-17,30-31H,13H2,1-12H3

>  <parent_inchikey>
MDWVSAYEQPLWMX-UHFFFAOYSA-N

>  <parent_smiles>
CC(C)(C)c1cc(Cc2cc(C(C)(C)C)c(O)c(C(C)(C)C)c2)cc(C(C)(C)C)c1O

>  <smiles>
CC(C)(C)C1=CC(CC2=CC(=C(O)C(=C2)C(C)(C)C)C(C)(C)C)=CC(=C1O)C(C)(C)C

>  <MODEL_molID>
mol000026

>  <MODEL_CAS>
4130-42-1

>  <MODEL_name>
2,6-Di-tert-butyl-4-ethylphenol

>  <MODEL_activity>
na

>  <MODEL_SMILES>
CCc1cc(C(C)(C)C)c(O)c(C(C)(C)C)c1

>  <MODEL_InChI>
InChI=1S/C16H26O/c1-8-11-9-12(15(2,3)4)14(17)13(10-11)16(5,6)7/h9-10,17H,8H2,1-7H3

>  <MODEL_AMW>
234.383

>  <MODEL_InChIkey>
BVUXDWXKPROUDO-UHFFFAOYSA-N

>  <MODEL_parent_SMILES>
CCc1cc(C(C)(C)C)c(O)c(C(C)(C)C)c1

>  <MODEL_parent_InChI>
InChI=1S/C16H26O/c1-8-11-9-12(15(2,3)4)14(17)13(10-11)16(5,6)7/h9-10,17H,8H2,1-7H3

>  <MODEL_parent_InChIkey>
BVUXDWXKPROUDO-UHFFFAOYSA-N

>  <MODEL_parent_AMW>
234.383

>  <MODEL_UniChem>
15

>  <MODEL_UniChem_wide>
61

>  <MODEL_heavy_atoms>
17

>  <MODEL_rotatable_bonds>
1

>  <MODEL_aromatic_rings>
1

>  <MODEL_AlogP>
4.5496

>  <MODEL_PSA>
20.23

>  <MODEL_HBA>
1

>  <MODEL_HBD>
1

>  <MODEL_QED_weighted>
0.7222938266

>  <MODEL_Lipinski_violations>
0

>  <MODEL_RO3_pass>
0

>  <MODEL_NETCHARGE>
-0.00004912

>  <MODEL_ABUNDANCE>
100% at pH 7.4

>  <similarity>
0.708333333333

$$$$

     RDKit          3D

 30 29  0  0  0  0  0  0  0  0999 V2000
   14.1341    0.0056    0.5182 C   0  0  0  0  0  0  0  0  0  0  0  0
   12.8907   -0.6515   -0.0845 C   0  0  0  0  0  0  0  0  0  0  0  0
   11.6447    0.1265    0.3433 C   0  0  0  0  0  0  0  0  0  0  0  0
   10.4013   -0.5306   -0.2594 C   0  0  0  0  0  0  0  0  0  0  0  0
    9.1553    0.2474    0.1685 C   0  0  0  0  0  0  0  0  0  0  0  0
    9.2011    1.6539   -0.4318 C   0  0  0  0  0  0  0  0  0  0  0  0
    8.0233    2.4736    0.0990 C   0  0  0  0  0  0  0  0  0  0  0  0
    7.9044   -0.4792   -0.3296 C   0  0  0  0  0  0  0  0  0  0  0  0
    6.7208    0.1870    0.1839 O   0  0  0  0  0  0  0  0  0  0  0  0
    5.5317   -0.3298   -0.1632 C   0  0  0  0  0  0  0  0  0  0  0  0
    5.4813   -1.3066   -0.8725 O   0  0  0  0  0  0  0  0  0  0  0  0
    4.2593    0.3082    0.3320 C   0  0  0  0  0  0  0  0  0  0  0  0
    3.0562   -0.4698   -0.2047 C   0  0  0  0  0  0  0  0  0  0  0  0
    1.7645    0.1780    0.2980 C   0  0  0  0  0  0  0  0  0  0  0  0
    0.5614   -0.6001   -0.2387 C   0  0  0  0  0  0  0  0  0  0  0  0
   -0.7304    0.0477    0.2639 C   0  0  0  0  0  0  0  0  0  0  0  0
   -1.9335   -0.7304   -0.2727 C   0  0  0  0  0  0  0  0  0  0  0  0
   -3.2252   -0.0826    0.2299 C   0  0  0  0  0  0  0  0  0  0  0  0
   -4.4283   -0.8606   -0.3068 C   0  0  0  0  0  0  0  0  0  0  0  0
   -5.7006   -0.2226    0.1884 C   0  0  0  0  0  0  0  0  0  0  0  0
   -5.6503    0.7543    0.8977 O   0  0  0  0  0  0  0  0  0  0  0  0
   -6.8898   -0.7394   -0.1587 O   0  0  0  0  0  0  0  0  0  0  0  0
   -8.0733   -0.0731    0.3548 C   0  0  0  0  0  0  0  0  0  0  0  0
   -9.3242   -0.7998   -0.1433 C   0  0  0  0  0  0  0  0  0  0  0  0
   -9.3647   -2.2100    0.4488 C   0  0  0  0  0  0  0  0  0  0  0  0
  -10.5395   -2.9828   -0.1540 C   0  0  0  0  0  0  0  0  0  0  0  0
  -10.5706   -0.0273    0.2935 C   0  0  0  0  0  0  0  0  0  0  0  0
  -10.6114    1.3231   -0.4246 C   0  0  0  0  0  0  0  0  0  0  0  0
  -11.8098    2.1314    0.0769 C   0  0  0  0  0  0  0  0  0  0  0  0
  -11.8505    3.4818   -0.6412 C   0  0  0  0  0  0  0  0  0  0  0  0
  1  2  1  0
  2  3  1  0
  3  4  1  0
  4  5  1  0
  5  6  1  0
  5  8  1  0
  6  7  1  0
  8  9  1  0
  9 10  1  0
 10 11  2  0
 10 12  1  0
 12 13  1  0
 13 14  1  0
 14 15  1  0
 15 16  1  0
 16 17  1  0
 17 18  1  0
 18 19  1  0
 19 20  1  0
 20 21  2  0
 20 22  1  0
 22 23  1  0
 23 24  1  0
 24 25  1  0
 24 27  1  0
 25 26  1  0
 27 28  1  0
 28 29  1  0
 29 30  1  0
M  END
>  <ABUNDANCE>
No species found

>  <ToxCast_chid>
25055

>  <inchi>
InChI=1/C26H50O4/c1-5-9-17-23(7-3)21-29-25(27)19-15-13-11-12-14-16-20-26(28)30-22-24(8-4)18-10-6-2/h23-24H,5-22H2,1-4H3

>  <parent_inchi>
InChI=1S/C26H50O4/c1-5-9-17-23(7-3)21-29-25(27)19-15-13-11-12-14-16-20-26(28)30-22-24(8-4)18-10-6-2/h23-24H,5-22H2,1-4H3

>  <parent_inchikey>
VJHINFRRDQUWOJ-UHFFFAOYSA-N

>  <parent_smiles>
CCCCC(CC)COC(=O)CCCCCCCCC(=O)OCC(CC)CCCC

>  <smiles>
CCCCC(CC)COC(=O)CCCCCCCCC(=O)OCC(CC)CCCC

>  <MODEL_molID>
mol000001

>  <MODEL_CAS>
103-23-1

>  <MODEL_name>
Di(2-ethylhexyl) adipate

>  <MODEL_activity>
na

>  <MODEL_SMILES>
CCCCC(CC)COC(=O)CCCCC(=O)OCC(CC)CCCC

>  <MODEL_InChI>
InChI=1S/C22H42O4/c1-5-9-13-19(7-3)17-25-21(23)15-11-12-16-22(24)26-18-20(8-4)14-10-6-2/h19-20H,5-18H2,1-4H3

>  <MODEL_AMW>
370.574

>  <MODEL_InChIkey>
SAOKZLXYCUGLFA-UHFFFAOYSA-N

>  <MODEL_parent_SMILES>
CCCCC(CC)COC(=O)CCCCC(=O)OCC(CC)CCCC

>  <MODEL_parent_InChI>
InChI=1S/C22H42O4/c1-5-9-13-19(7-3)17-25-21(23)15-11-12-16-22(24)26-18-20(8-4)14-10-6-2/h19-20H,5-18H2,1-4H3

>  <MODEL_parent_InChIkey>
SAOKZLXYCUGLFA-UHFFFAOYSA-N

>  <MODEL_parent_AMW>
370.574

>  <MODEL_UniChem>
15

>  <MODEL_UniChem_wide>
28

>  <MODEL_heavy_atoms>
26

>  <MODEL_rotatable_bonds>
17

>  <MODEL_aromatic_rings>
0

>  <MODEL_AlogP>
6.066

>  <MODEL_PSA>
52.6

>  <MODEL_HBA>
4

>  <MODEL_HBD>
0

>  <MODEL_QED_weighted>
0.2287751828

>  <MODEL_Lipinski_violations>
1

>  <MODEL_RO3_pass>
0

>  <MODEL_NETCHARGE>
na

>  <MODEL_ABUNDANCE>
No species found

>  <similarity>
0.964285714286

$$$$

     RDKit          3D

 29 28  0  0  0  0  0  0  0  0999 V2000
   13.4721   -0.7450    0.4802 C   0  0  0  0  0  0  0  0  0  0  0  0
   12.1635   -1.2791   -0.1056 C   0  0  0  0  0  0  0  0  0  0  0  0
   11.0045   -0.3820    0.3336 C   0  0  0  0  0  0  0  0  0  0  0  0
    9.6959   -0.9161   -0.2523 C   0  0  0  0  0  0  0  0  0  0  0  0
    8.5368   -0.0191    0.1869 C   0  0  0  0  0  0  0  0  0  0  0  0
    8.7126    1.3747   -0.4192 C   0  0  0  0  0  0  0  0  0  0  0  0
    7.6268    2.3069    0.1221 C   0  0  0  0  0  0  0  0  0  0  0  0
    7.2152   -0.6214   -0.2940 C   0  0  0  0  0  0  0  0  0  0  0  0
    6.1085    0.1587    0.2306 O   0  0  0  0  0  0  0  0  0  0  0  0
    4.8705   -0.2405   -0.1008 C   0  0  0  0  0  0  0  0  0  0  0  0
    4.7167   -1.2096   -0.8058 O   0  0  0  0  0  0  0  0  0  0  0  0
    3.6725    0.5201    0.4065 C   0  0  0  0  0  0  0  0  0  0  0  0
    2.3929   -0.1382   -0.1134 C   0  0  0  0  0  0  0  0  0  0  0  0
    1.1767    0.6340    0.4017 C   0  0  0  0  0  0  0  0  0  0  0  0
   -0.1029   -0.0243   -0.1182 C   0  0  0  0  0  0  0  0  0  0  0  0
   -1.3192    0.7479    0.3969 C   0  0  0  0  0  0  0  0  0  0  0  0
   -2.5988    0.0896   -0.1230 C   0  0  0  0  0  0  0  0  0  0  0  0
   -3.8151    0.8618    0.3921 C   0  0  0  0  0  0  0  0  0  0  0  0
   -5.0755    0.2134   -0.1200 C   0  0  0  0  0  0  0  0  0  0  0  0
   -5.0078   -0.7658   -0.8246 O   0  0  0  0  0  0  0  0  0  0  0  0
   -6.2732    0.7238    0.2067 O   0  0  0  0  0  0  0  0  0  0  0  0
   -7.4443    0.0477   -0.3222 C   0  0  0  0  0  0  0  0  0  0  0  0
   -8.7074    0.7680    0.1537 C   0  0  0  0  0  0  0  0  0  0  0  0
   -8.7480    2.1756   -0.4445 C   0  0  0  0  0  0  0  0  0  0  0  0
   -9.9370    2.9429    0.1371 C   0  0  0  0  0  0  0  0  0  0  0  0
   -9.9419   -0.0144   -0.2990 C   0  0  0  0  0  0  0  0  0  0  0  0
   -9.9848   -1.3622    0.4237 C   0  0  0  0  0  0  0  0  0  0  0  0
  -11.1700   -2.1804   -0.0929 C   0  0  0  0  0  0  0  0  0  0  0  0
  -11.2130   -3.5282    0.6298 C   0  0  0  0  0  0  0  0  0  0  0  0
  1  2  1  0
  2  3  1  0
  3  4  1  0
  4  5  1  0
  5  6  1  0
  5  8  1  0
  6  7  1  0
  8  9  1  0
  9 10  1  0
 10 11  2  0
 10 12  1  0
 12 13  1  0
 13 14  1  0
 14 15  1  0
 15 16  1  0
 16 17  1  0
 17 18  1  0
 18 19  1  0
 19 20  2  0
 19 21  1  0
 21 22  1  0
 22 23  1  0
 23 24  1  0
 23 26  1  0
 24 25  1  0
 26 27  1  0
 27 28  1  0
 28 29  1  0
M  END
>  <ABUNDANCE>
No species found

>  <ToxCast_chid>
26697

>  <inchi>
InChI=1/C25H48O4/c1-5-9-16-22(7-3)20-28-24(26)18-14-12-11-13-15-19-25(27)29-21-23(8-4)17-10-6-2/h22-23H,5-21H2,1-4H3

>  <parent_inchi>
InChI=1S/C25H48O4/c1-5-9-16-22(7-3)20-28-24(26)18-14-12-11-13-15-19-25(27)29-21-23(8-4)17-10-6-2/h22-23H,5-21H2,1-4H3

>  <parent_inchikey>
ZDWGXBPVPXVXMQ-UHFFFAOYSA-N

>  <parent_smiles>
CCCCC(CC)COC(=O)CCCCCCCC(=O)OCC(CC)CCCC

>  <smiles>
CCCCC(CC)COC(=O)CCCCCCCC(=O)OCC(CC)CCCC

>  <MODEL_molID>
mol000001

>  <MODEL_CAS>
103-23-1

>  <MODEL_name>
Di(2-ethylhexyl) adipate

>  <MODEL_activity>
na

>  <MODEL_SMILES>
CCCCC(CC)COC(=O)CCCCC(=O)OCC(CC)CCCC

>  <MODEL_InChI>
InChI=1S/C22H42O4/c1-5-9-13-19(7-3)17-25-21(23)15-11-12-16-22(24)26-18-20(8-4)14-10-6-2/h19-20H,5-18H2,1-4H3

>  <MODEL_AMW>
370.574

>  <MODEL_InChIkey>
SAOKZLXYCUGLFA-UHFFFAOYSA-N

>  <MODEL_parent_SMILES>
CCCCC(CC)COC(=O)CCCCC(=O)OCC(CC)CCCC

>  <MODEL_parent_InChI>
InChI=1S/C22H42O4/c1-5-9-13-19(7-3)17-25-21(23)15-11-12-16-22(24)26-18-20(8-4)14-10-6-2/h19-20H,5-18H2,1-4H3

>  <MODEL_parent_InChIkey>
SAOKZLXYCUGLFA-UHFFFAOYSA-N

>  <MODEL_parent_AMW>
370.574

>  <MODEL_UniChem>
15

>  <MODEL_UniChem_wide>
28

>  <MODEL_heavy_atoms>
26

>  <MODEL_rotatable_bonds>
17

>  <MODEL_aromatic_rings>
0

>  <MODEL_AlogP>
6.066

>  <MODEL_PSA>
52.6

>  <MODEL_HBA>
4

>  <MODEL_HBD>
0

>  <MODEL_QED_weighted>
0.2287751828

>  <MODEL_Lipinski_violations>
1

>  <MODEL_RO3_pass>
0

>  <MODEL_NETCHARGE>
na

>  <MODEL_ABUNDANCE>
No species found

>  <similarity>
0.964285714286

$$$$

     RDKit          3D

 21 20  0  0  0  0  0  0  0  0999 V2000
   11.5559   -0.0043   -0.5084 C   0  0  0  0  0  0  0  0  0  0  0  0
   10.2910    0.7686   -0.1292 C   0  0  0  0  0  0  0  0  0  0  0  0
    9.0664   -0.1253   -0.3345 C   0  0  0  0  0  0  0  0  0  0  0  0
    7.8015    0.6476    0.0447 C   0  0  0  0  0  0  0  0  0  0  0  0
    6.5769   -0.2463   -0.1606 C   0  0  0  0  0  0  0  0  0  0  0  0
    5.3121    0.5265    0.2185 C   0  0  0  0  0  0  0  0  0  0  0  0
    4.0874   -0.3673    0.0132 C   0  0  0  0  0  0  0  0  0  0  0  0
    4.1440   -1.4689    0.9218 O   0  0  0  0  0  0  0  0  0  0  0  0
    2.8156    0.4427    0.2723 C   0  0  0  0  0  0  0  0  0  0  0  0
    1.5902   -0.4138   -0.0531 C   0  0  0  0  0  0  0  0  0  0  0  0
    0.3184    0.3962    0.2060 C   0  0  0  0  0  0  0  0  0  0  0  0
   -0.9069   -0.4603   -0.1195 C   0  0  0  0  0  0  0  0  0  0  0  0
   -2.1788    0.3498    0.1397 C   0  0  0  0  0  0  0  0  0  0  0  0
   -3.4041   -0.5067   -0.1858 C   0  0  0  0  0  0  0  0  0  0  0  0
   -4.6759    0.3033    0.0733 C   0  0  0  0  0  0  0  0  0  0  0  0
   -5.9013   -0.5532   -0.2521 C   0  0  0  0  0  0  0  0  0  0  0  0
   -7.1731    0.2569    0.0070 C   0  0  0  0  0  0  0  0  0  0  0  0
   -8.3984   -0.5996   -0.3185 C   0  0  0  0  0  0  0  0  0  0  0  0
   -9.6512    0.1982   -0.0632 C   0  0  0  0  0  0  0  0  0  0  0  0
  -10.8548   -0.3543   -0.2814 O   0  0  0  0  0  0  0  0  0  0  0  0
   -9.5720    1.3352    0.3379 O   0  0  0  0  0  0  0  0  0  0  0  0
  1  2  1  0
  2  3  1  0
  3  4  1  0
  4  5  1  0
  5  6  1  0
  6  7  1  0
  7  8  1  0
  7  9  1  0
  9 10  1  0
 10 11  1  0
 11 12  1  0
 12 13  1  0
 13 14  1  0
 14 15  1  0
 15 16  1  0
 16 17  1  0
 17 18  1  0
 18 19  1  0
 19 20  1  0
 19 21  2  0
M  CHG  1  20  -1
M  END
>  <ABUNDANCE>
99.77% at pH 7.4

>  <NETCHARGE>
-0.9977

>  <ToxCast_chid>
26725

>  <inchi>
InChI=1/C18H36O3/c1-2-3-4-11-14-17(19)15-12-9-7-5-6-8-10-13-16-18(20)21/h17,19H,2-16H2,1H3,(H,20,21)

>  <parent_inchi>
InChI=1S/C18H36O3/c1-2-3-4-11-14-17(19)15-12-9-7-5-6-8-10-13-16-18(20)21/h17,19H,2-16H2,1H3,(H,20,21)

>  <parent_inchikey>
ULQISTXYYBZJSJ-UHFFFAOYSA-N

>  <parent_smiles>
CCCCCCC(O)CCCCCCCCCCC(=O)O

>  <smiles>
CCCCCCC(O)CCCCCCCCCCC(O)=O

>  <MODEL_molID>
mol000011

>  <MODEL_CAS>
124-07-2

>  <MODEL_name>
Octanoic acid

>  <MODEL_activity>
negative

>  <MODEL_SMILES>
CCCCCCCC(=O)O

>  <MODEL_InChI>
InChI=1S/C8H16O2/c1-2-3-4-5-6-7-8(9)10/h2-7H2,1H3,(H,9,10)

>  <MODEL_AMW>
144.214

>  <MODEL_InChIkey>
WWZKQHOCKIZLMA-UHFFFAOYSA-N

>  <MODEL_parent_SMILES>
CCCCCCCC(=O)O

>  <MODEL_parent_InChI>
InChI=1S/C8H16O2/c1-2-3-4-5-6-7-8(9)10/h2-7H2,1H3,(H,9,10)

>  <MODEL_parent_InChIkey>
WWZKQHOCKIZLMA-UHFFFAOYSA-N

>  <MODEL_parent_AMW>
144.214

>  <MODEL_UniChem>
31

>  <MODEL_UniChem_wide>
31

>  <MODEL_heavy_atoms>
10

>  <MODEL_rotatable_bonds>
6

>  <MODEL_aromatic_rings>
0

>  <MODEL_AlogP>
2.4315

>  <MODEL_PSA>
37.3

>  <MODEL_HBA>
1

>  <MODEL_HBD>
1

>  <MODEL_QED_weighted>
0.5810743743

>  <MODEL_Lipinski_violations>
0

>  <MODEL_RO3_pass>
0

>  <MODEL_NETCHARGE>
-0.9977

>  <MODEL_ABUNDANCE>
99.77% at pH 7.4

>  <similarity>
0.72

$$$$

     RDKit          3D

 14 13  0  0  0  0  0  0  0  0999 V2000
    6.7966   -0.6022    0.0000 O   0  0  0  0  0  0  0  0  0  0  0  0
    5.6190    0.0420   -0.0000 C   0  0  0  0  0  0  0  0  0  0  0  0
    5.5912    1.2499   -0.0000 O   0  0  0  0  0  0  0  0  0  0  0  0
    4.3316   -0.7414    0.0000 C   0  0  0  0  0  0  0  0  0  0  0  0
    3.1461    0.2258   -0.0000 C   0  0  0  0  0  0  0  0  0  0  0  0
    1.8390   -0.5695    0.0000 C   0  0  0  0  0  0  0  0  0  0  0  0
    0.6535    0.3977   -0.0000 C   0  0  0  0  0  0  0  0  0  0  0  0
   -0.6535   -0.3977    0.0000 C   0  0  0  0  0  0  0  0  0  0  0  0
   -1.8390    0.5695   -0.0000 C   0  0  0  0  0  0  0  0  0  0  0  0
   -3.1461   -0.2258    0.0000 C   0  0  0  0  0  0  0  0  0  0  0  0
   -4.3316    0.7414   -0.0000 C   0  0  0  0  0  0  0  0  0  0  0  0
   -5.6190   -0.0420    0.0000 C   0  0  0  0  0  0  0  0  0  0  0  0
   -6.7966    0.6022   -0.0000 O   0  0  0  0  0  0  0  0  0  0  0  0
   -5.5912   -1.2499    0.0000 O   0  0  0  0  0  0  0  0  0  0  0  0
  1  2  1  0
  2  3  2  0
  2  4  1  0
  4  5  1  0
  5  6  1  0
  6  7  1  0
  7  8  1  0
  8  9  1  0
  9 10  1  0
 10 11  1  0
 11 12  1  0
 12 13  1  0
 12 14  2  0
M  CHG  2   1  -1  13  -1
M  END
>  <ABUNDANCE>
99.55% at pH 7.4

>  <NETCHARGE>
-1.995

>  <ToxCast_chid>
26867

>  <inchi>
InChI=1S/C10H18O4/c11-9(12)7-5-3-1-2-4-6-8-10(13)14/h1-8H2,(H,11,12)(H,13,14)

>  <parent_inchi>
InChI=1S/C10H18O4/c11-9(12)7-5-3-1-2-4-6-8-10(13)14/h1-8H2,(H,11,12)(H,13,14)

>  <parent_inchikey>
CXMXRPHRNRROMY-UHFFFAOYSA-N

>  <parent_smiles>
O=C(O)CCCCCCCCC(=O)O

>  <smiles>
OC(=O)CCCCCCCCC(O)=O

>  <MODEL_molID>
mol000011

>  <MODEL_CAS>
124-07-2

>  <MODEL_name>
Octanoic acid

>  <MODEL_activity>
negative

>  <MODEL_SMILES>
CCCCCCCC(=O)O

>  <MODEL_InChI>
InChI=1S/C8H16O2/c1-2-3-4-5-6-7-8(9)10/h2-7H2,1H3,(H,9,10)

>  <MODEL_AMW>
144.214

>  <MODEL_InChIkey>
WWZKQHOCKIZLMA-UHFFFAOYSA-N

>  <MODEL_parent_SMILES>
CCCCCCCC(=O)O

>  <MODEL_parent_InChI>
InChI=1S/C8H16O2/c1-2-3-4-5-6-7-8(9)10/h2-7H2,1H3,(H,9,10)

>  <MODEL_parent_InChIkey>
WWZKQHOCKIZLMA-UHFFFAOYSA-N

>  <MODEL_parent_AMW>
144.214

>  <MODEL_UniChem>
31

>  <MODEL_UniChem_wide>
31

>  <MODEL_heavy_atoms>
10

>  <MODEL_rotatable_bonds>
6

>  <MODEL_aromatic_rings>
0

>  <MODEL_AlogP>
2.4315

>  <MODEL_PSA>
37.3

>  <MODEL_HBA>
1

>  <MODEL_HBD>
1

>  <MODEL_QED_weighted>
0.5810743743

>  <MODEL_Lipinski_violations>
0

>  <MODEL_RO3_pass>
0

>  <MODEL_NETCHARGE>
-0.9977

>  <MODEL_ABUNDANCE>
99.77% at pH 7.4

>  <similarity>
0.722222222222

$$$$

     RDKit          3D

 24 23  0  0  0  0  0  0  0  0999 V2000
   11.8948    3.5790    0.3421 C   0  0  0  0  0  0  0  0  0  0  0  0
   10.4443    3.3707   -0.0978 C   0  0  0  0  0  0  0  0  0  0  0  0
   10.0417    1.9147    0.1452 C   0  0  0  0  0  0  0  0  0  0  0  0
    8.5912    1.7064   -0.2947 C   0  0  0  0  0  0  0  0  0  0  0  0
    8.1886    0.2505   -0.0516 C   0  0  0  0  0  0  0  0  0  0  0  0
    6.7381    0.0422   -0.4916 C   0  0  0  0  0  0  0  0  0  0  0  0
    6.3356   -1.4138   -0.2485 C   0  0  0  0  0  0  0  0  0  0  0  0
    4.8851   -1.6221   -0.6884 C   0  0  0  0  0  0  0  0  0  0  0  0
    4.4885   -3.0561   -0.4490 C   0  0  0  0  0  0  0  0  0  0  0  0
    3.4029   -3.3308    0.2307 C   0  0  0  0  0  0  0  0  0  0  0  0
    2.4614   -2.2228    0.6269 C   0  0  0  0  0  0  0  0  0  0  0  0
    1.0473   -2.5602    0.1499 C   0  0  0  0  0  0  0  0  0  0  0  0
    0.0915   -1.4352    0.5521 C   0  0  0  0  0  0  0  0  0  0  0  0
   -1.3226   -1.7726    0.0752 C   0  0  0  0  0  0  0  0  0  0  0  0
   -2.2785   -0.6477    0.4774 C   0  0  0  0  0  0  0  0  0  0  0  0
   -3.6925   -0.9850    0.0004 C   0  0  0  0  0  0  0  0  0  0  0  0
   -4.6484    0.1399    0.4026 C   0  0  0  0  0  0  0  0  0  0  0  0
   -6.0625   -0.1975   -0.0743 C   0  0  0  0  0  0  0  0  0  0  0  0
   -7.0183    0.9274    0.3279 C   0  0  0  0  0  0  0  0  0  0  0  0
   -8.4324    0.5901   -0.1491 C   0  0  0  0  0  0  0  0  0  0  0  0
   -9.3882    1.7150    0.2531 C   0  0  0  0  0  0  0  0  0  0  0  0
  -10.7811    1.3827   -0.2167 C   0  0  0  0  0  0  0  0  0  0  0  0
  -11.7918    2.2319    0.0263 O   0  0  0  0  0  0  0  0  0  0  0  0
  -10.9880    0.3519   -0.8121 O   0  0  0  0  0  0  0  0  0  0  0  0
  1  2  1  0
  2  3  1  0
  3  4  1  0
  4  5  1  0
  5  6  1  0
  6  7  1  0
  7  8  1  0
  8  9  1  0
  9 10  2  0
 10 11  1  0
 11 12  1  0
 12 13  1  0
 13 14  1  0
 14 15  1  0
 15 16  1  0
 16 17  1  0
 17 18  1  0
 18 19  1  0
 19 20  1  0
 20 21  1  0
 21 22  1  0
 22 23  1  0
 22 24  2  0
M  CHG  1  23  -1
M  END
>  <ABUNDANCE>
99.77% at pH 7.4

>  <NETCHARGE>
-0.9977

>  <ToxCast_chid>
26931

>  <inchi>
InChI=1S/C22H42O2/c1-2-3-4-5-6-7-8-9-10-11-12-13-14-15-16-17-18-19-20-21-22(23)24/h9-10H,2-8,11-21H2,1H3,(H,23,24)/b10-9-

>  <parent_inchi>
InChI=1S/C22H42O2/c1-2-3-4-5-6-7-8-9-10-11-12-13-14-15-16-17-18-19-20-21-22(23)24/h9-10H,2-8,11-21H2,1H3,(H,23,24)/b10-9-

>  <parent_inchikey>
DPUOLQHDNGRHBS-KTKRTIGZSA-N

>  <parent_smiles>
CCCCCCCC/C=C\CCCCCCCCCCCC(=O)O

>  <smiles>
CCCCCCCC\C=C/CCCCCCCCCCCC(O)=O

>  <MODEL_molID>
mol000011

>  <MODEL_CAS>
124-07-2

>  <MODEL_name>
Octanoic acid

>  <MODEL_activity>
negative

>  <MODEL_SMILES>
CCCCCCCC(=O)O

>  <MODEL_InChI>
InChI=1S/C8H16O2/c1-2-3-4-5-6-7-8(9)10/h2-7H2,1H3,(H,9,10)

>  <MODEL_AMW>
144.214

>  <MODEL_InChIkey>
WWZKQHOCKIZLMA-UHFFFAOYSA-N

>  <MODEL_parent_SMILES>
CCCCCCCC(=O)O

>  <MODEL_parent_InChI>
InChI=1S/C8H16O2/c1-2-3-4-5-6-7-8(9)10/h2-7H2,1H3,(H,9,10)

>  <MODEL_parent_InChIkey>
WWZKQHOCKIZLMA-UHFFFAOYSA-N

>  <MODEL_parent_AMW>
144.214

>  <MODEL_UniChem>
31

>  <MODEL_UniChem_wide>
31

>  <MODEL_heavy_atoms>
10

>  <MODEL_rotatable_bonds>
6

>  <MODEL_aromatic_rings>
0

>  <MODEL_AlogP>
2.4315

>  <MODEL_PSA>
37.3

>  <MODEL_HBA>
1

>  <MODEL_HBD>
1

>  <MODEL_QED_weighted>
0.5810743743

>  <MODEL_Lipinski_violations>
0

>  <MODEL_RO3_pass>
0

>  <MODEL_NETCHARGE>
-0.9977

>  <MODEL_ABUNDANCE>
99.77% at pH 7.4

>  <similarity>
0.75

$$$$

     RDKit          3D

 16 15  0  0  0  0  0  0  0  0999 V2000
    8.0524   -0.5666    0.0000 O   0  0  0  0  0  0  0  0  0  0  0  0
    6.8652    0.0597    0.0000 C   0  0  0  0  0  0  0  0  0  0  0  0
    6.8191    1.2671   -0.0000 O   0  0  0  0  0  0  0  0  0  0  0  0
    5.5897   -0.7430    0.0000 C   0  0  0  0  0  0  0  0  0  0  0  0
    4.3898    0.2062    0.0000 C   0  0  0  0  0  0  0  0  0  0  0  0
    3.0949   -0.6088    0.0000 C   0  0  0  0  0  0  0  0  0  0  0  0
    1.8949    0.3404   -0.0000 C   0  0  0  0  0  0  0  0  0  0  0  0
    0.6000   -0.4746    0.0000 C   0  0  0  0  0  0  0  0  0  0  0  0
   -0.6000    0.4746   -0.0000 C   0  0  0  0  0  0  0  0  0  0  0  0
   -1.8949   -0.3404    0.0000 C   0  0  0  0  0  0  0  0  0  0  0  0
   -3.0949    0.6088   -0.0000 C   0  0  0  0  0  0  0  0  0  0  0  0
   -4.3898   -0.2062   -0.0000 C   0  0  0  0  0  0  0  0  0  0  0  0
   -5.5897    0.7430   -0.0000 C   0  0  0  0  0  0  0  0  0  0  0  0
   -6.8652   -0.0597   -0.0000 C   0  0  0  0  0  0  0  0  0  0  0  0
   -8.0524    0.5666   -0.0000 O   0  0  0  0  0  0  0  0  0  0  0  0
   -6.8191   -1.2671    0.0000 O   0  0  0  0  0  0  0  0  0  0  0  0
  1  2  1  0
  2  3  2  0
  2  4  1  0
  4  5  1  0
  5  6  1  0
  6  7  1  0
  7  8  1  0
  8  9  1  0
  9 10  1  0
 10 11  1  0
 11 12  1  0
 12 13  1  0
 13 14  1  0
 14 15  1  0
 14 16  2  0
M  CHG  2   1  -1  15  -1
M  END
>  <ABUNDANCE>
99.55% at pH 7.4

>  <NETCHARGE>
-1.995

>  <ToxCast_chid>
27297

>  <inchi>
InChI=1S/C12H22O4/c13-11(14)9-7-5-3-1-2-4-6-8-10-12(15)16/h1-10H2,(H,13,14)(H,15,16)

>  <parent_inchi>
InChI=1S/C12H22O4/c13-11(14)9-7-5-3-1-2-4-6-8-10-12(15)16/h1-10H2,(H,13,14)(H,15,16)

>  <parent_inchikey>
TVIDDXQYHWJXFK-UHFFFAOYSA-N

>  <parent_smiles>
O=C(O)CCCCCCCCCCC(=O)O

>  <smiles>
OC(=O)CCCCCCCCCCC(O)=O

>  <MODEL_molID>
mol000011

>  <MODEL_CAS>
124-07-2

>  <MODEL_name>
Octanoic acid

>  <MODEL_activity>
negative

>  <MODEL_SMILES>
CCCCCCCC(=O)O

>  <MODEL_InChI>
InChI=1S/C8H16O2/c1-2-3-4-5-6-7-8(9)10/h2-7H2,1H3,(H,9,10)

>  <MODEL_AMW>
144.214

>  <MODEL_InChIkey>
WWZKQHOCKIZLMA-UHFFFAOYSA-N

>  <MODEL_parent_SMILES>
CCCCCCCC(=O)O

>  <MODEL_parent_InChI>
InChI=1S/C8H16O2/c1-2-3-4-5-6-7-8(9)10/h2-7H2,1H3,(H,9,10)

>  <MODEL_parent_InChIkey>
WWZKQHOCKIZLMA-UHFFFAOYSA-N

>  <MODEL_parent_AMW>
144.214

>  <MODEL_UniChem>
31

>  <MODEL_UniChem_wide>
31

>  <MODEL_heavy_atoms>
10

>  <MODEL_rotatable_bonds>
6

>  <MODEL_aromatic_rings>
0

>  <MODEL_AlogP>
2.4315

>  <MODEL_PSA>
37.3

>  <MODEL_HBA>
1

>  <MODEL_HBD>
1

>  <MODEL_QED_weighted>
0.5810743743

>  <MODEL_Lipinski_violations>
0

>  <MODEL_RO3_pass>
0

>  <MODEL_NETCHARGE>
-0.9977

>  <MODEL_ABUNDANCE>
99.77% at pH 7.4

>  <similarity>
0.722222222222

$$$$

     RDKit          3D

 13 12  0  0  0  0  0  0  0  0999 V2000
    6.3235   -0.3131    0.3775 C   0  0  0  0  0  0  0  0  0  0  0  0
    5.0224   -0.9704   -0.0874 C   0  0  0  0  0  0  0  0  0  0  0  0
    3.8396   -0.0671    0.2672 C   0  0  0  0  0  0  0  0  0  0  0  0
    2.5385   -0.7244   -0.1977 C   0  0  0  0  0  0  0  0  0  0  0  0
    1.3557    0.1790    0.1569 C   0  0  0  0  0  0  0  0  0  0  0  0
    1.4553    1.4842   -0.6352 C   0  0  0  0  0  0  0  0  0  0  0  0
    0.3683    2.4517   -0.1628 C   0  0  0  0  0  0  0  0  0  0  0  0
    0.0475   -0.5323   -0.1946 C   0  0  0  0  0  0  0  0  0  0  0  0
   -1.0751    0.2560    0.2817 O   0  0  0  0  0  0  0  0  0  0  0  0
   -2.3040   -0.2324    0.0515 C   0  0  0  0  0  0  0  0  0  0  0  0
   -2.4373   -1.2838   -0.5288 O   0  0  0  0  0  0  0  0  0  0  0  0
   -3.5174    0.5305    0.5167 C   0  0  0  0  0  0  0  0  0  0  0  0
   -5.0172   -0.3819    0.0598 S   0  0  0  0  0  0  0  0  0  0  0  0
  1  2  1  0
  2  3  1  0
  3  4  1  0
  4  5  1  0
  5  6  1  0
  5  8  1  0
  6  7  1  0
  8  9  1  0
  9 10  1  0
 10 11  2  0
 10 12  1  0
 12 13  1  0
M  CHG  1  13  -1
M  END
>  <ABUNDANCE>
58.4% at pH 7.4

>  <NETCHARGE>
-0.584

>  <ToxCast_chid>
27656

>  <inchi>
InChI=1/C10H20O2S/c1-3-5-6-9(4-2)7-12-10(11)8-13/h9,13H,3-8H2,1-2H3

>  <parent_inchi>
InChI=1S/C10H20O2S/c1-3-5-6-9(4-2)7-12-10(11)8-13/h9,13H,3-8H2,1-2H3

>  <parent_inchikey>
OWHSTLLOZWTNTQ-UHFFFAOYSA-N

>  <parent_smiles>
CCCCC(CC)COC(=O)CS

>  <smiles>
CCCCC(CC)COC(=O)CS

>  <MODEL_molID>
mol000001

>  <MODEL_CAS>
103-23-1

>  <MODEL_name>
Di(2-ethylhexyl) adipate

>  <MODEL_activity>
na

>  <MODEL_SMILES>
CCCCC(CC)COC(=O)CCCCC(=O)OCC(CC)CCCC

>  <MODEL_InChI>
InChI=1S/C22H42O4/c1-5-9-13-19(7-3)17-25-21(23)15-11-12-16-22(24)26-18-20(8-4)14-10-6-2/h19-20H,5-18H2,1-4H3

>  <MODEL_AMW>
370.574

>  <MODEL_InChIkey>
SAOKZLXYCUGLFA-UHFFFAOYSA-N

>  <MODEL_parent_SMILES>
CCCCC(CC)COC(=O)CCCCC(=O)OCC(CC)CCCC

>  <MODEL_parent_InChI>
InChI=1S/C22H42O4/c1-5-9-13-19(7-3)17-25-21(23)15-11-12-16-22(24)26-18-20(8-4)14-10-6-2/h19-20H,5-18H2,1-4H3

>  <MODEL_parent_InChIkey>
SAOKZLXYCUGLFA-UHFFFAOYSA-N

>  <MODEL_parent_AMW>
370.574

>  <MODEL_UniChem>
15

>  <MODEL_UniChem_wide>
28

>  <MODEL_heavy_atoms>
26

>  <MODEL_rotatable_bonds>
17

>  <MODEL_aromatic_rings>
0

>  <MODEL_AlogP>
6.066

>  <MODEL_PSA>
52.6

>  <MODEL_HBA>
4

>  <MODEL_HBD>
0

>  <MODEL_QED_weighted>
0.2287751828

>  <MODEL_Lipinski_violations>
1

>  <MODEL_RO3_pass>
0

>  <MODEL_NETCHARGE>
na

>  <MODEL_ABUNDANCE>
No species found

>  <similarity>
0.71875

$$$$

     RDKit          3D

 14 15  0  0  0  0  0  0  0  0999 V2000
    4.8708   -0.0000   -0.0080 O   0  0  0  0  0  0  0  0  0  0  0  0
    3.5119   -0.0000   -0.0087 C   0  0  0  0  0  0  0  0  0  0  0  0
    2.8192    1.2030   -0.0105 C   0  0  0  0  0  0  0  0  0  0  0  0
    1.4401    1.2063   -0.0112 C   0  0  0  0  0  0  0  0  0  0  0  0
    0.7418   -0.0000   -0.0100 C   0  0  0  0  0  0  0  0  0  0  0  0
    1.4401   -1.2063   -0.0081 C   0  0  0  0  0  0  0  0  0  0  0  0
    2.8192   -1.2031   -0.0132 C   0  0  0  0  0  0  0  0  0  0  0  0
   -0.7417   -0.0000   -0.0102 C   0  0  0  0  0  0  0  0  0  0  0  0
   -1.4401   -1.2063   -0.0090 C   0  0  0  0  0  0  0  0  0  0  0  0
   -2.8192   -1.2031   -0.0087 C   0  0  0  0  0  0  0  0  0  0  0  0
   -3.5119   -0.0000   -0.0100 C   0  0  0  0  0  0  0  0  0  0  0  0
   -4.8708   -0.0000   -0.0102 O   0  0  0  0  0  0  0  0  0  0  0  0
   -2.8192    1.2030   -0.0108 C   0  0  0  0  0  0  0  0  0  0  0  0
   -1.4401    1.2063   -0.0058 C   0  0  0  0  0  0  0  0  0  0  0  0
  1  2  1  0
  2  3  2  0
  2  7  1  0
  3  4  1  0
  4  5  2  0
  5  6  1  0
  5  8  1  0
  6  7  2  0
  8  9  2  0
  8 14  1  0
  9 10  1  0
 10 11  2  0
 11 12  1  0
 11 13  1  0
 13 14  2  0
M  END
>  <ABUNDANCE>
98.68% at pH 7.4

>  <NETCHARGE>
-0.01321

>  <ToxCast_chid>
29120

>  <inchi>
InChI=1S/C12H10O2/c13-11-5-1-9(2-6-11)10-3-7-12(14)8-4-10/h1-8,13-14H

>  <parent_inchi>
InChI=1S/C12H10O2/c13-11-5-1-9(2-6-11)10-3-7-12(14)8-4-10/h1-8,13-14H

>  <parent_inchikey>
VCCBEIPGXKNHFW-UHFFFAOYSA-N

>  <parent_smiles>
Oc1ccc(-c2ccc(O)cc2)cc1

>  <smiles>
OC1=CC=C(C=C1)C1=CC=C(O)C=C1

>  <MODEL_molID>
mol000010

>  <MODEL_CAS>
123-31-9

>  <MODEL_name>
Hydroquinone

>  <MODEL_activity>
na

>  <MODEL_SMILES>
Oc1ccc(O)cc1

>  <MODEL_InChI>
InChI=1S/C6H6O2/c7-5-1-2-6(8)4-3-5/h1-4,7-8H

>  <MODEL_AMW>
110.112

>  <MODEL_InChIkey>
QIGBRXMKCJKVMJ-UHFFFAOYSA-N

>  <MODEL_parent_SMILES>
Oc1ccc(O)cc1

>  <MODEL_parent_InChI>
InChI=1S/C6H6O2/c7-5-1-2-6(8)4-3-5/h1-4,7-8H

>  <MODEL_parent_InChIkey>
QIGBRXMKCJKVMJ-UHFFFAOYSA-N

>  <MODEL_parent_AMW>
110.112

>  <MODEL_UniChem>
28

>  <MODEL_UniChem_wide>
28

>  <MODEL_heavy_atoms>
8

>  <MODEL_rotatable_bonds>
0

>  <MODEL_aromatic_rings>
1

>  <MODEL_AlogP>
1.0978

>  <MODEL_PSA>
40.46

>  <MODEL_HBA>
2

>  <MODEL_HBD>
2

>  <MODEL_QED_weighted>
0.4971912172

>  <MODEL_Lipinski_violations>
0

>  <MODEL_RO3_pass>
1

>  <MODEL_NETCHARGE>
-0.00137

>  <MODEL_ABUNDANCE>
99.86% at pH 7.4

>  <similarity>
0.727272727273

$$$$

     RDKit          3D

 23 25  0  0  0  0  0  0  0  0999 V2000
   -0.0357   -0.0444   -2.4770 C   0  0  0  0  0  0  0  0  0  0  0  0
   -0.0141   -0.0161   -0.9474 C   0  0  0  0  0  0  0  0  0  0  0  0
    0.8846    1.0990   -0.4783 C   0  0  0  0  0  0  0  0  0  0  0  0
    2.2068    1.1356   -0.8810 C   0  0  0  0  0  0  0  0  0  0  0  0
    3.0327    2.1564   -0.4519 C   0  0  0  0  0  0  0  0  0  0  0  0
    2.5343    3.1457    0.3834 C   0  0  0  0  0  0  0  0  0  0  0  0
    3.3447    4.1512    0.8065 O   0  0  0  0  0  0  0  0  0  0  0  0
    1.2072    3.1069    0.7857 C   0  0  0  0  0  0  0  0  0  0  0  0
    0.3840    2.0868    0.3496 C   0  0  0  0  0  0  0  0  0  0  0  0
   -1.4106    0.2125   -0.4294 C   0  0  0  0  0  0  0  0  0  0  0  0
   -2.4342    0.5071   -1.3111 C   0  0  0  0  0  0  0  0  0  0  0  0
   -3.7151    0.7176   -0.8388 C   0  0  0  0  0  0  0  0  0  0  0  0
   -3.9743    0.6327    0.5215 C   0  0  0  0  0  0  0  0  0  0  0  0
   -5.2337    0.8389    0.9886 O   0  0  0  0  0  0  0  0  0  0  0  0
   -2.9457    0.3366    1.4040 C   0  0  0  0  0  0  0  0  0  0  0  0
   -1.6674    0.1218    0.9261 C   0  0  0  0  0  0  0  0  0  0  0  0
    0.5052   -1.3320   -0.4280 C   0  0  0  0  0  0  0  0  0  0  0  0
   -0.0730   -2.5160   -0.8471 C   0  0  0  0  0  0  0  0  0  0  0  0
    0.4008   -3.7235   -0.3721 C   0  0  0  0  0  0  0  0  0  0  0  0
    1.4581   -3.7476    0.5259 C   0  0  0  0  0  0  0  0  0  0  0  0
    1.9264   -4.9343    0.9943 O   0  0  0  0  0  0  0  0  0  0  0  0
    2.0369   -2.5583    0.9444 C   0  0  0  0  0  0  0  0  0  0  0  0
    1.5627   -1.3536    0.4625 C   0  0  0  0  0  0  0  0  0  0  0  0
  1  2  1  0
  2  3  1  0
  2 10  1  0
  2 17  1  0
  3  4  2  0
  3  9  1  0
  4  5  1  0
  5  6  2  0
  6  7  1  0
  6  8  1  0
  8  9  2  0
 10 11  2  0
 10 16  1  0
 11 12  1  0
 12 13  2  0
 13 14  1  0
 13 15  1  0
 15 16  2  0
 17 18  2  0
 17 23  1  0
 18 19  1  0
 19 20  2  0
 20 21  1  0
 20 22  1  0
 22 23  2  0
M  END
>  <ABUNDANCE>
98.95% at pH 7.4

>  <NETCHARGE>
-0.01051

>  <ToxCast_chid>
37712

>  <inchi>
InChI=1S/C20H18O3/c1-20(14-2-8-17(21)9-3-14,15-4-10-18(22)11-5-15)16-6-12-19(23)13-7-16/h2-13,21-23H,1H3

>  <parent_inchi>
InChI=1S/C20H18O3/c1-20(14-2-8-17(21)9-3-14,15-4-10-18(22)11-5-15)16-6-12-19(23)13-7-16/h2-13,21-23H,1H3

>  <parent_inchikey>
BRPSWMCDEYMRPE-UHFFFAOYSA-N

>  <parent_smiles>
CC(c1ccc(O)cc1)(c1ccc(O)cc1)c1ccc(O)cc1

>  <smiles>
CC(C1=CC=C(O)C=C1)(C1=CC=C(O)C=C1)C1=CC=C(O)C=C1

>  <MODEL_molID>
mol000039

>  <MODEL_CAS>
98-54-4

>  <MODEL_name>
4-tert-Butylphenol

>  <MODEL_activity>
na

>  <MODEL_SMILES>
CC(C)(C)c1ccc(O)cc1

>  <MODEL_InChI>
InChI=1S/C10H14O/c1-10(2,3)8-4-6-9(11)7-5-8/h4-7,11H,1-3H3

>  <MODEL_AMW>
150.221

>  <MODEL_InChIkey>
QHPQWRBYOIRBIT-UHFFFAOYSA-N

>  <MODEL_parent_SMILES>
CC(C)(C)c1ccc(O)cc1

>  <MODEL_parent_InChI>
InChI=1S/C10H14O/c1-10(2,3)8-4-6-9(11)7-5-8/h4-7,11H,1-3H3

>  <MODEL_parent_InChIkey>
QHPQWRBYOIRBIT-UHFFFAOYSA-N

>  <MODEL_parent_AMW>
150.221

>  <MODEL_UniChem>
21

>  <MODEL_UniChem_wide>
405

>  <MODEL_heavy_atoms>
11

>  <MODEL_rotatable_bonds>
0

>  <MODEL_aromatic_rings>
1

>  <MODEL_AlogP>
2.6897

>  <MODEL_PSA>
20.23

>  <MODEL_HBA>
1

>  <MODEL_HBD>
1

>  <MODEL_QED_weighted>
0.5999314436

>  <MODEL_Lipinski_violations>
0

>  <MODEL_RO3_pass>
1

>  <MODEL_NETCHARGE>
-0.001454

>  <MODEL_ABUNDANCE>
99.85% at pH 7.4

>  <similarity>
0.722222222222

$$$$

     RDKit          3D

 27 28  0  0  0  0  0  0  0  0999 V2000
    2.0661    4.0296    1.0683 C   0  0  0  0  0  0  0  0  0  0  0  0
    2.7769    3.5264   -0.1896 C   0  0  0  0  0  0  0  0  0  0  0  0
    2.5282    2.0487   -0.3500 C   0  0  0  0  0  0  0  0  0  0  0  0
    1.4345    1.6073   -1.0711 C   0  0  0  0  0  0  0  0  0  0  0  0
    1.2046    0.2530   -1.2200 C   0  0  0  0  0  0  0  0  0  0  0  0
    0.0124   -0.2275   -2.0067 C   0  0  0  0  0  0  0  0  0  0  0  0
   -1.1325   -0.5024   -1.0661 C   0  0  0  0  0  0  0  0  0  0  0  0
   -1.9735    0.5295   -0.6760 C   0  0  0  0  0  0  0  0  0  0  0  0
   -1.7662    1.7893   -1.1415 O   0  0  0  0  0  0  0  0  0  0  0  0
   -3.0270    0.2730    0.1897 C   0  0  0  0  0  0  0  0  0  0  0  0
   -3.2358   -1.0084    0.6610 C   0  0  0  0  0  0  0  0  0  0  0  0
   -2.3957   -2.0353    0.2711 C   0  0  0  0  0  0  0  0  0  0  0  0
   -2.6256   -3.4323    0.7872 C   0  0  0  0  0  0  0  0  0  0  0  0
   -3.5619   -4.1799   -0.1643 C   0  0  0  0  0  0  0  0  0  0  0  0
   -1.3488   -1.7835   -0.5959 C   0  0  0  0  0  0  0  0  0  0  0  0
   -3.9423    1.3918    0.6159 C   0  0  0  0  0  0  0  0  0  0  0  0
   -5.0107    0.8436    1.5640 C   0  0  0  0  0  0  0  0  0  0  0  0
   -3.1290    2.4709    1.3335 C   0  0  0  0  0  0  0  0  0  0  0  0
   -4.6166    1.9968   -0.6171 C   0  0  0  0  0  0  0  0  0  0  0  0
    2.0722   -0.6639   -0.6451 C   0  0  0  0  0  0  0  0  0  0  0  0
    1.8485   -1.9964   -0.7905 O   0  0  0  0  0  0  0  0  0  0  0  0
    3.1693   -0.2183    0.0782 C   0  0  0  0  0  0  0  0  0  0  0  0
    3.3976    1.1366    0.2197 C   0  0  0  0  0  0  0  0  0  0  0  0
    4.1140   -1.2117    0.7041 C   0  0  0  0  0  0  0  0  0  0  0  0
    5.2283   -0.4631    1.4382 C   0  0  0  0  0  0  0  0  0  0  0  0
    3.3480   -2.0879    1.6973 C   0  0  0  0  0  0  0  0  0  0  0  0
    4.7247   -2.0925   -0.3877 C   0  0  0  0  0  0  0  0  0  0  0  0
  1  2  1  0
  2  3  1  0
  3  4  2  0
  3 23  1  0
  4  5  1  0
  5  6  1  0
  5 20  2  0
  6  7  1  0
  7  8  2  0
  7 15  1  0
  8  9  1  0
  8 10  1  0
 10 11  2  0
 10 16  1  0
 11 12  1  0
 12 13  1  0
 12 15  2  0
 13 14  1  0
 16 17  1  0
 16 18  1  0
 16 19  1  0
 20 21  1  0
 20 22  1  0
 22 23  2  0
 22 24  1  0
 24 25  1  0
 24 26  1  0
 24 27  1  0
M  END
>  <ABUNDANCE>
99.89% at pH 7.4

>  <NETCHARGE>
-0.001144

>  <ToxCast_chid>
38864

>  <inchi>
InChI=1S/C25H36O2/c1-9-16-11-18(22(26)20(13-16)24(3,4)5)15-19-12-17(10-2)14-21(23(19)27)25(6,7)8/h11-14,26-27H,9-10,15H2,1-8H3

>  <parent_inchi>
InChI=1S/C25H36O2/c1-9-16-11-18(22(26)20(13-16)24(3,4)5)15-19-12-17(10-2)14-21(23(19)27)25(6,7)8/h11-14,26-27H,9-10,15H2,1-8H3

>  <parent_inchikey>
GPNYZBKIGXGYNU-UHFFFAOYSA-N

>  <parent_smiles>
CCc1cc(Cc2cc(CC)cc(C(C)(C)C)c2O)c(O)c(C(C)(C)C)c1

>  <smiles>
CCC1=CC(CC2=C(O)C(=CC(CC)=C2)C(C)(C)C)=C(O)C(=C1)C(C)(C)C

>  <MODEL_molID>
mol000026

>  <MODEL_CAS>
4130-42-1

>  <MODEL_name>
2,6-Di-tert-butyl-4-ethylphenol

>  <MODEL_activity>
na

>  <MODEL_SMILES>
CCc1cc(C(C)(C)C)c(O)c(C(C)(C)C)c1

>  <MODEL_InChI>
InChI=1S/C16H26O/c1-8-11-9-12(15(2,3)4)14(17)13(10-11)16(5,6)7/h9-10,17H,8H2,1-7H3

>  <MODEL_AMW>
234.383

>  <MODEL_InChIkey>
BVUXDWXKPROUDO-UHFFFAOYSA-N

>  <MODEL_parent_SMILES>
CCc1cc(C(C)(C)C)c(O)c(C(C)(C)C)c1

>  <MODEL_parent_InChI>
InChI=1S/C16H26O/c1-8-11-9-12(15(2,3)4)14(17)13(10-11)16(5,6)7/h9-10,17H,8H2,1-7H3

>  <MODEL_parent_InChIkey>
BVUXDWXKPROUDO-UHFFFAOYSA-N

>  <MODEL_parent_AMW>
234.383

>  <MODEL_UniChem>
15

>  <MODEL_UniChem_wide>
61

>  <MODEL_heavy_atoms>
17

>  <MODEL_rotatable_bonds>
1

>  <MODEL_aromatic_rings>
1

>  <MODEL_AlogP>
4.5496

>  <MODEL_PSA>
20.23

>  <MODEL_HBA>
1

>  <MODEL_HBD>
1

>  <MODEL_QED_weighted>
0.7222938266

>  <MODEL_Lipinski_violations>
0

>  <MODEL_RO3_pass>
0

>  <MODEL_NETCHARGE>
-0.00004912

>  <MODEL_ABUNDANCE>
100% at pH 7.4

>  <similarity>
0.740740740741

$$$$

     RDKit          3D

 18 17  0  0  0  0  0  0  0  0999 V2000
    8.8361   -2.4063   -0.2792 C   0  0  0  0  0  0  0  0  0  0  0  0
    7.3855   -2.2532    0.1826 C   0  0  0  0  0  0  0  0  0  0  0  0
    6.9224   -0.8152   -0.0593 C   0  0  0  0  0  0  0  0  0  0  0  0
    5.4718   -0.6621    0.4024 C   0  0  0  0  0  0  0  0  0  0  0  0
    5.0086    0.7759    0.1606 C   0  0  0  0  0  0  0  0  0  0  0  0
    3.5580    0.9290    0.6223 C   0  0  0  0  0  0  0  0  0  0  0  0
    3.1018    2.3454    0.3841 C   0  0  0  0  0  0  0  0  0  0  0  0
    1.9959    2.5744   -0.2796 C   0  0  0  0  0  0  0  0  0  0  0  0
    1.0926    1.4287   -0.6572 C   0  0  0  0  0  0  0  0  0  0  0  0
   -0.3261    1.7123   -0.1595 C   0  0  0  0  0  0  0  0  0  0  0  0
   -1.2431    0.5491   -0.5428 C   0  0  0  0  0  0  0  0  0  0  0  0
   -2.6618    0.8327   -0.0450 C   0  0  0  0  0  0  0  0  0  0  0  0
   -3.5788   -0.3305   -0.4284 C   0  0  0  0  0  0  0  0  0  0  0  0
   -4.9975   -0.0469    0.0694 C   0  0  0  0  0  0  0  0  0  0  0  0
   -5.9146   -1.2101   -0.3139 C   0  0  0  0  0  0  0  0  0  0  0  0
   -7.3119   -0.9307    0.1763 C   0  0  0  0  0  0  0  0  0  0  0  0
   -8.2922   -1.8199   -0.0479 O   0  0  0  0  0  0  0  0  0  0  0  0
   -7.5500    0.0936    0.7713 O   0  0  0  0  0  0  0  0  0  0  0  0
  1  2  1  0
  2  3  1  0
  3  4  1  0
  4  5  1  0
  5  6  1  0
  6  7  1  0
  7  8  2  0
  8  9  1  0
  9 10  1  0
 10 11  1  0
 11 12  1  0
 12 13  1  0
 13 14  1  0
 14 15  1  0
 15 16  1  0
 16 17  1  0
 16 18  2  0
M  CHG  1  17  -1
M  END
>  <ABUNDANCE>
99.77% at pH 7.4

>  <NETCHARGE>
-0.9977

>  <ToxCast_chid>
41197

>  <inchi>
InChI=1S/C16H30O2/c1-2-3-4-5-6-7-8-9-10-11-12-13-14-15-16(17)18/h7-8H,2-6,9-15H2,1H3,(H,17,18)/b8-7-

>  <parent_inchi>
InChI=1S/C16H30O2/c1-2-3-4-5-6-7-8-9-10-11-12-13-14-15-16(17)18/h7-8H,2-6,9-15H2,1H3,(H,17,18)/b8-7-

>  <parent_inchikey>
SECPZKHBENQXJG-FPLPWBNLSA-N

>  <parent_smiles>
CCCCCC/C=C\CCCCCCCC(=O)O

>  <smiles>
CCCCCC\C=C/CCCCCCCC(O)=O

>  <MODEL_molID>
mol000011

>  <MODEL_CAS>
124-07-2

>  <MODEL_name>
Octanoic acid

>  <MODEL_activity>
negative

>  <MODEL_SMILES>
CCCCCCCC(=O)O

>  <MODEL_InChI>
InChI=1S/C8H16O2/c1-2-3-4-5-6-7-8(9)10/h2-7H2,1H3,(H,9,10)

>  <MODEL_AMW>
144.214

>  <MODEL_InChIkey>
WWZKQHOCKIZLMA-UHFFFAOYSA-N

>  <MODEL_parent_SMILES>
CCCCCCCC(=O)O

>  <MODEL_parent_InChI>
InChI=1S/C8H16O2/c1-2-3-4-5-6-7-8(9)10/h2-7H2,1H3,(H,9,10)

>  <MODEL_parent_InChIkey>
WWZKQHOCKIZLMA-UHFFFAOYSA-N

>  <MODEL_parent_AMW>
144.214

>  <MODEL_UniChem>
31

>  <MODEL_UniChem_wide>
31

>  <MODEL_heavy_atoms>
10

>  <MODEL_rotatable_bonds>
6

>  <MODEL_aromatic_rings>
0

>  <MODEL_AlogP>
2.4315

>  <MODEL_PSA>
37.3

>  <MODEL_HBA>
1

>  <MODEL_HBD>
1

>  <MODEL_QED_weighted>
0.5810743743

>  <MODEL_Lipinski_violations>
0

>  <MODEL_RO3_pass>
0

>  <MODEL_NETCHARGE>
-0.9977

>  <MODEL_ABUNDANCE>
99.77% at pH 7.4

>  <similarity>
0.75

$$$$

     RDKit          3D

 13 13  0  0  0  0  0  0  0  0999 V2000
    2.5623    2.5458    0.0123 C   0  0  0  0  0  0  0  0  0  0  0  0
    1.7207    1.2957    0.0042 C   0  0  0  0  0  0  0  0  0  0  0  0
    2.3290    0.0544   -0.0022 C   0  0  0  0  0  0  0  0  0  0  0  0
    1.5596   -1.0932   -0.0101 C   0  0  0  0  0  0  0  0  0  0  0  0
    2.2234   -2.4462   -0.0171 C   0  0  0  0  0  0  0  0  0  0  0  0
    0.1757   -0.9990   -0.0111 C   0  0  0  0  0  0  0  0  0  0  0  0
   -0.5832   -2.1263   -0.0184 O   0  0  0  0  0  0  0  0  0  0  0  0
   -0.4324    0.2481   -0.0041 C   0  0  0  0  0  0  0  0  0  0  0  0
    0.3412    1.3923    0.0090 C   0  0  0  0  0  0  0  0  0  0  0  0
   -1.9357    0.3542   -0.0056 C   0  0  0  0  0  0  0  0  0  0  0  0
   -2.3429    1.8289    0.0030 C   0  0  0  0  0  0  0  0  0  0  0  0
   -2.4934   -0.3216   -1.2599 C   0  0  0  0  0  0  0  0  0  0  0  0
   -2.4969   -0.3372    1.2385 C   0  0  0  0  0  0  0  0  0  0  0  0
  1  2  1  0
  2  3  2  0
  2  9  1  0
  3  4  1  0
  4  5  1  0
  4  6  2  0
  6  7  1  0
  6  8  1  0
  8  9  2  0
  8 10  1  0
 10 11  1  0
 10 12  1  0
 10 13  1  0
M  END
>  <ABUNDANCE>
99.99% at pH 7.4

>  <NETCHARGE>
-0.0001479

>  <ToxCast_chid>
41551

>  <inchi>
InChI=1S/C12H18O/c1-8-6-9(2)11(13)10(7-8)12(3,4)5/h6-7,13H,1-5H3

>  <parent_inchi>
InChI=1S/C12H18O/c1-8-6-9(2)11(13)10(7-8)12(3,4)5/h6-7,13H,1-5H3

>  <parent_inchikey>
OPLCSTZDXXUYDU-UHFFFAOYSA-N

>  <parent_smiles>
Cc1cc(C)c(O)c(C(C)(C)C)c1

>  <smiles>
CC1=CC(C)=C(O)C(=C1)C(C)(C)C

>  <MODEL_molID>
mol000012

>  <MODEL_CAS>
128-37-0

>  <MODEL_name>
Butylated hydroxytoluene

>  <MODEL_activity>
na

>  <MODEL_SMILES>
Cc1cc(C(C)(C)C)c(O)c(C(C)(C)C)c1

>  <MODEL_InChI>
InChI=1S/C15H24O/c1-10-8-11(14(2,3)4)13(16)12(9-10)15(5,6)7/h8-9,16H,1-7H3

>  <MODEL_AMW>
220.356

>  <MODEL_InChIkey>
NLZUEZXRPGMBCV-UHFFFAOYSA-N

>  <MODEL_parent_SMILES>
Cc1cc(C(C)(C)C)c(O)c(C(C)(C)C)c1

>  <MODEL_parent_InChI>
InChI=1S/C15H24O/c1-10-8-11(14(2,3)4)13(16)12(9-10)15(5,6)7/h8-9,16H,1-7H3

>  <MODEL_parent_InChIkey>
NLZUEZXRPGMBCV-UHFFFAOYSA-N

>  <MODEL_parent_AMW>
220.356

>  <MODEL_UniChem>
24

>  <MODEL_UniChem_wide>
501

>  <MODEL_heavy_atoms>
16

>  <MODEL_rotatable_bonds>
0

>  <MODEL_aromatic_rings>
1

>  <MODEL_AlogP>
4.29562

>  <MODEL_PSA>
20.23

>  <MODEL_HBA>
1

>  <MODEL_HBD>
1

>  <MODEL_QED_weighted>
0.6625535227

>  <MODEL_Lipinski_violations>
0

>  <MODEL_RO3_pass>
0

>  <MODEL_NETCHARGE>
-0.00005749

>  <MODEL_ABUNDANCE>
99.99% at pH 7.4

>  <similarity>
0.772727272727

$$$$

     RDKit          3D

 15 14  0  0  0  0  0  0  0  0999 V2000
    7.4465   -0.3726    0.0000 O   0  0  0  0  0  0  0  0  0  0  0  0
    6.2274    0.1891   -0.0000 C   0  0  0  0  0  0  0  0  0  0  0  0
    6.1166    1.3923   -0.0000 O   0  0  0  0  0  0  0  0  0  0  0  0
    4.9969   -0.6809    0.0000 C   0  0  0  0  0  0  0  0  0  0  0  0
    3.7477    0.2025   -0.0000 C   0  0  0  0  0  0  0  0  0  0  0  0
    2.4985   -0.6808    0.0000 C   0  0  0  0  0  0  0  0  0  0  0  0
    1.2492    0.2025   -0.0000 C   0  0  0  0  0  0  0  0  0  0  0  0
   -0.0000   -0.6808    0.0000 C   0  0  0  0  0  0  0  0  0  0  0  0
   -1.2492    0.2026   -0.0000 C   0  0  0  0  0  0  0  0  0  0  0  0
   -2.4985   -0.6807    0.0000 C   0  0  0  0  0  0  0  0  0  0  0  0
   -3.7477    0.2027   -0.0000 C   0  0  0  0  0  0  0  0  0  0  0  0
   -4.9970   -0.6806    0.0000 C   0  0  0  0  0  0  0  0  0  0  0  0
   -6.2274    0.1895   -0.0000 C   0  0  0  0  0  0  0  0  0  0  0  0
   -7.4466   -0.3722    0.0000 O   0  0  0  0  0  0  0  0  0  0  0  0
   -6.1165    1.3926   -0.0000 O   0  0  0  0  0  0  0  0  0  0  0  0
  1  2  1  0
  2  3  2  0
  2  4  1  0
  4  5  1  0
  5  6  1  0
  6  7  1  0
  7  8  1  0
  8  9  1  0
  9 10  1  0
 10 11  1  0
 11 12  1  0
 12 13  1  0
 13 14  1  0
 13 15  2  0
M  CHG  2   1  -1  14  -1
M  END
>  <ABUNDANCE>
99.55% at pH 7.4

>  <NETCHARGE>
-1.995

>  <ToxCast_chid>
44862

>  <inchi>
InChI=1S/C11H20O4/c12-10(13)8-6-4-2-1-3-5-7-9-11(14)15/h1-9H2,(H,12,13)(H,14,15)

>  <parent_inchi>
InChI=1S/C11H20O4/c12-10(13)8-6-4-2-1-3-5-7-9-11(14)15/h1-9H2,(H,12,13)(H,14,15)

>  <parent_inchikey>
LWBHHRRTOZQPDM-UHFFFAOYSA-N

>  <parent_smiles>
O=C(O)CCCCCCCCCC(=O)O

>  <smiles>
OC(=O)CCCCCCCCCC(O)=O

>  <MODEL_molID>
mol000011

>  <MODEL_CAS>
124-07-2

>  <MODEL_name>
Octanoic acid

>  <MODEL_activity>
negative

>  <MODEL_SMILES>
CCCCCCCC(=O)O

>  <MODEL_InChI>
InChI=1S/C8H16O2/c1-2-3-4-5-6-7-8(9)10/h2-7H2,1H3,(H,9,10)

>  <MODEL_AMW>
144.214

>  <MODEL_InChIkey>
WWZKQHOCKIZLMA-UHFFFAOYSA-N

>  <MODEL_parent_SMILES>
CCCCCCCC(=O)O

>  <MODEL_parent_InChI>
InChI=1S/C8H16O2/c1-2-3-4-5-6-7-8(9)10/h2-7H2,1H3,(H,9,10)

>  <MODEL_parent_InChIkey>
WWZKQHOCKIZLMA-UHFFFAOYSA-N

>  <MODEL_parent_AMW>
144.214

>  <MODEL_UniChem>
31

>  <MODEL_UniChem_wide>
31

>  <MODEL_heavy_atoms>
10

>  <MODEL_rotatable_bonds>
6

>  <MODEL_aromatic_rings>
0

>  <MODEL_AlogP>
2.4315

>  <MODEL_PSA>
37.3

>  <MODEL_HBA>
1

>  <MODEL_HBD>
1

>  <MODEL_QED_weighted>
0.5810743743

>  <MODEL_Lipinski_violations>
0

>  <MODEL_RO3_pass>
0

>  <MODEL_NETCHARGE>
-0.9977

>  <MODEL_ABUNDANCE>
99.77% at pH 7.4

>  <similarity>
0.722222222222

$$$$

     RDKit          3D

 18 17  0  0  0  0  0  0  0  0999 V2000
    8.9663    0.0781    0.4716 C   0  0  0  0  0  0  0  0  0  0  0  0
    7.7315    0.6746   -0.2068 C   0  0  0  0  0  0  0  0  0  0  0  0
    6.4690    0.0573    0.3982 C   0  0  0  0  0  0  0  0  0  0  0  0
    5.2342    0.6538   -0.2802 C   0  0  0  0  0  0  0  0  0  0  0  0
    3.9717    0.0364    0.3247 C   0  0  0  0  0  0  0  0  0  0  0  0
    2.7369    0.6330   -0.3537 C   0  0  0  0  0  0  0  0  0  0  0  0
    1.4744    0.0156    0.2512 C   0  0  0  0  0  0  0  0  0  0  0  0
    0.2396    0.6122   -0.4272 C   0  0  0  0  0  0  0  0  0  0  0  0
   -1.0229   -0.0052    0.1778 C   0  0  0  0  0  0  0  0  0  0  0  0
   -2.2580    0.6797   -0.4109 C   0  0  0  0  0  0  0  0  0  0  0  0
   -3.5143    0.1504    0.2836 C   0  0  0  0  0  0  0  0  0  0  0  0
   -4.7493    0.8353   -0.3051 C   0  0  0  0  0  0  0  0  0  0  0  0
   -6.0057    0.3060    0.3895 C   0  0  0  0  0  0  0  0  0  0  0  0
   -7.2407    0.9909   -0.1993 C   0  0  0  0  0  0  0  0  0  0  0  0
   -8.4971    0.4616    0.4953 C   0  0  0  0  0  0  0  0  0  0  0  0
   -1.0648   -1.4774   -0.1414 C   0  0  0  0  0  0  0  0  0  0  0  0
   -2.0894   -2.2290    0.2910 O   0  0  0  0  0  0  0  0  0  0  0  0
   -0.1760   -1.9811   -0.7866 O   0  0  0  0  0  0  0  0  0  0  0  0
  1  2  1  0
  2  3  1  0
  3  4  1  0
  4  5  1  0
  5  6  1  0
  6  7  1  0
  7  8  1  0
  8  9  1  0
  9 10  1  0
  9 16  1  0
 10 11  1  0
 11 12  1  0
 12 13  1  0
 13 14  1  0
 14 15  1  0
 16 17  1  0
 16 18  2  0
M  CHG  1  17  -1
M  END
>  <ABUNDANCE>
99.51% at pH 7.4

>  <NETCHARGE>
-0.9951

>  <ToxCast_chid>
44893

>  <inchi>
InChI=1/C16H32O2/c1-3-5-7-9-10-12-14-15(16(17)18)13-11-8-6-4-2/h15H,3-14H2,1-2H3,(H,17,18)

>  <parent_inchi>
InChI=1S/C16H32O2/c1-3-5-7-9-10-12-14-15(16(17)18)13-11-8-6-4-2/h15H,3-14H2,1-2H3,(H,17,18)

>  <parent_inchikey>
JMOLZNNXZPAGBH-UHFFFAOYSA-N

>  <parent_smiles>
CCCCCCCCC(CCCCCC)C(=O)O

>  <smiles>
CCCCCCCCC(CCCCCC)C(O)=O

>  <MODEL_molID>
mol000023

>  <MODEL_CAS>
31080-39-4

>  <MODEL_name>
2-Propylheptanoic acid

>  <MODEL_activity>
probably positive

>  <MODEL_SMILES>
CCCCCC(CCC)C(=O)O

>  <MODEL_InChI>
InChI=1S/C10H20O2/c1-3-5-6-8-9(7-4-2)10(11)12/h9H,3-8H2,1-2H3,(H,11,12)

>  <MODEL_AMW>
172.268

>  <MODEL_InChIkey>
RXGPYPPCEXISOV-UHFFFAOYSA-N

>  <MODEL_parent_SMILES>
CCCCCC(CCC)C(=O)O

>  <MODEL_parent_InChI>
InChI=1S/C10H20O2/c1-3-5-6-8-9(7-4-2)10(11)12/h9H,3-8H2,1-2H3,(H,11,12)

>  <MODEL_parent_InChIkey>
RXGPYPPCEXISOV-UHFFFAOYSA-N

>  <MODEL_parent_AMW>
172.268

>  <MODEL_UniChem>
8

>  <MODEL_UniChem_wide>
41

>  <MODEL_heavy_atoms>
12

>  <MODEL_rotatable_bonds>
7

>  <MODEL_aromatic_rings>
0

>  <MODEL_AlogP>
3.0676

>  <MODEL_PSA>
37.3

>  <MODEL_HBA>
1

>  <MODEL_HBD>
1

>  <MODEL_QED_weighted>
0.5920051643

>  <MODEL_Lipinski_violations>
0

>  <MODEL_RO3_pass>
0

>  <MODEL_NETCHARGE>
-0.9958

>  <MODEL_ABUNDANCE>
99.58% at pH 7.4

>  <similarity>
0.869565217391

$$$$

     RDKit          3D

 28 27  0  0  0  0  0  0  0  0999 V2000
   15.7862    0.0568   -0.2251 C   0  0  0  0  0  0  0  0  0  0  0  0
   14.5030    0.7024    0.3017 C   0  0  0  0  0  0  0  0  0  0  0  0
   13.2903   -0.0561   -0.2414 C   0  0  0  0  0  0  0  0  0  0  0  0
   12.0071    0.5896    0.2854 C   0  0  0  0  0  0  0  0  0  0  0  0
   10.7944   -0.1689   -0.2577 C   0  0  0  0  0  0  0  0  0  0  0  0
    9.5113    0.4767    0.2691 C   0  0  0  0  0  0  0  0  0  0  0  0
    8.2986   -0.2818   -0.2740 C   0  0  0  0  0  0  0  0  0  0  0  0
    7.0154    0.3639    0.2528 C   0  0  0  0  0  0  0  0  0  0  0  0
    5.8027   -0.3946   -0.2902 C   0  0  0  0  0  0  0  0  0  0  0  0
    4.5195    0.2510    0.2366 C   0  0  0  0  0  0  0  0  0  0  0  0
    3.3068   -0.5075   -0.3065 C   0  0  0  0  0  0  0  0  0  0  0  0
    2.0236    0.1382    0.2203 C   0  0  0  0  0  0  0  0  0  0  0  0
    0.8109   -0.6203   -0.3228 C   0  0  0  0  0  0  0  0  0  0  0  0
   -0.4722    0.0253    0.2040 C   0  0  0  0  0  0  0  0  0  0  0  0
   -1.6849   -0.7332   -0.3391 C   0  0  0  0  0  0  0  0  0  0  0  0
   -2.9681   -0.0875    0.1877 C   0  0  0  0  0  0  0  0  0  0  0  0
   -4.1808   -0.8460   -0.3554 C   0  0  0  0  0  0  0  0  0  0  0  0
   -5.4447   -0.2101    0.1635 C   0  0  0  0  0  0  0  0  0  0  0  0
   -5.3820    0.7512    0.8928 O   0  0  0  0  0  0  0  0  0  0  0  0
   -6.6402   -0.7115   -0.1846 O   0  0  0  0  0  0  0  0  0  0  0  0
   -7.8149   -0.0483    0.3525 C   0  0  0  0  0  0  0  0  0  0  0  0
   -9.0747   -0.7559   -0.1506 C   0  0  0  0  0  0  0  0  0  0  0  0
   -9.1200   -2.1780    0.4120 C   0  0  0  0  0  0  0  0  0  0  0  0
  -10.2924   -2.9367   -0.2131 C   0  0  0  0  0  0  0  0  0  0  0  0
  -10.3122    0.0154    0.3126 C   0  0  0  0  0  0  0  0  0  0  0  0
  -10.3316    1.3941   -0.3505 C   0  0  0  0  0  0  0  0  0  0  0  0
  -11.6176    2.1277    0.0355 C   0  0  0  0  0  0  0  0  0  0  0  0
  -11.6370    3.5064   -0.6276 C   0  0  0  0  0  0  0  0  0  0  0  0
  1  2  1  0
  2  3  1  0
  3  4  1  0
  4  5  1  0
  5  6  1  0
  6  7  1  0
  7  8  1  0
  8  9  1  0
  9 10  1  0
 10 11  1  0
 11 12  1  0
 12 13  1  0
 13 14  1  0
 14 15  1  0
 15 16  1  0
 16 17  1  0
 17 18  1  0
 18 19  2  0
 18 20  1  0
 20 21  1  0
 21 22  1  0
 22 23  1  0
 22 25  1  0
 23 24  1  0
 25 26  1  0
 26 27  1  0
 27 28  1  0
M  END
>  <ABUNDANCE>
No species found

>  <ToxCast_chid>
47178

>  <inchi>
InChI=1/C26H52O2/c1-4-7-9-10-11-12-13-14-15-16-17-18-19-20-21-23-26(27)28-24-25(6-3)22-8-5-2/h25H,4-24H2,1-3H3

>  <parent_inchi>
InChI=1S/C26H52O2/c1-4-7-9-10-11-12-13-14-15-16-17-18-19-20-21-23-26(27)28-24-25(6-3)22-8-5-2/h25H,4-24H2,1-3H3

>  <parent_inchikey>
OPJWPPVYCOPDCM-UHFFFAOYSA-N

>  <parent_smiles>
CCCCCCCCCCCCCCCCCC(=O)OCC(CC)CCCC

>  <smiles>
CCCCCCCCCCCCCCCCCC(=O)OCC(CC)CCCC

>  <MODEL_molID>
mol000001

>  <MODEL_CAS>
103-23-1

>  <MODEL_name>
Di(2-ethylhexyl) adipate

>  <MODEL_activity>
na

>  <MODEL_SMILES>
CCCCC(CC)COC(=O)CCCCC(=O)OCC(CC)CCCC

>  <MODEL_InChI>
InChI=1S/C22H42O4/c1-5-9-13-19(7-3)17-25-21(23)15-11-12-16-22(24)26-18-20(8-4)14-10-6-2/h19-20H,5-18H2,1-4H3

>  <MODEL_AMW>
370.574

>  <MODEL_InChIkey>
SAOKZLXYCUGLFA-UHFFFAOYSA-N

>  <MODEL_parent_SMILES>
CCCCC(CC)COC(=O)CCCCC(=O)OCC(CC)CCCC

>  <MODEL_parent_InChI>
InChI=1S/C22H42O4/c1-5-9-13-19(7-3)17-25-21(23)15-11-12-16-22(24)26-18-20(8-4)14-10-6-2/h19-20H,5-18H2,1-4H3

>  <MODEL_parent_InChIkey>
SAOKZLXYCUGLFA-UHFFFAOYSA-N

>  <MODEL_parent_AMW>
370.574

>  <MODEL_UniChem>
15

>  <MODEL_UniChem_wide>
28

>  <MODEL_heavy_atoms>
26

>  <MODEL_rotatable_bonds>
17

>  <MODEL_aromatic_rings>
0

>  <MODEL_AlogP>
6.066

>  <MODEL_PSA>
52.6

>  <MODEL_HBA>
4

>  <MODEL_HBD>
0

>  <MODEL_QED_weighted>
0.2287751828

>  <MODEL_Lipinski_violations>
1

>  <MODEL_RO3_pass>
0

>  <MODEL_NETCHARGE>
na

>  <MODEL_ABUNDANCE>
No species found

>  <similarity>
0.931034482759

$$$$

     RDKit          3D

 12 12  0  0  0  0  0  0  0  0999 V2000
    3.0686   -1.2276    0.0211 C   0  0  0  0  0  0  0  0  0  0  0  0
    1.9746   -0.1912    0.0094 C   0  0  0  0  0  0  0  0  0  0  0  0
    2.2953    1.1522   -0.0043 C   0  0  0  0  0  0  0  0  0  0  0  0
    1.2919    2.1038   -0.0150 C   0  0  0  0  0  0  0  0  0  0  0  0
   -0.0342    1.7133   -0.0119 C   0  0  0  0  0  0  0  0  0  0  0  0
   -0.3603    0.3707    0.0023 C   0  0  0  0  0  0  0  0  0  0  0  0
    0.6444   -0.5857    0.0068 C   0  0  0  0  0  0  0  0  0  0  0  0
    0.3263   -1.9069    0.0207 O   0  0  0  0  0  0  0  0  0  0  0  0
   -1.8061   -0.0542    0.0062 C   0  0  0  0  0  0  0  0  0  0  0  0
   -2.7022    1.1858   -0.0075 C   0  0  0  0  0  0  0  0  0  0  0  0
   -2.0915   -0.9033   -1.2342 C   0  0  0  0  0  0  0  0  0  0  0  0
   -2.0926   -0.8766    1.2641 C   0  0  0  0  0  0  0  0  0  0  0  0
  1  2  1  0
  2  3  2  0
  2  7  1  0
  3  4  1  0
  4  5  2  0
  5  6  1  0
  6  7  2  0
  6  9  1  0
  7  8  1  0
  9 10  1  0
  9 11  1  0
  9 12  1  0
M  END
>  <ABUNDANCE>
99.95% at pH 7.4

>  <NETCHARGE>
-0.000526

>  <ToxCast_chid>
47468

>  <inchi>
InChI=1S/C11H16O/c1-8-6-5-7-9(10(8)12)11(2,3)4/h5-7,12H,1-4H3

>  <parent_inchi>
InChI=1S/C11H16O/c1-8-6-5-7-9(10(8)12)11(2,3)4/h5-7,12H,1-4H3

>  <parent_inchikey>
BKZXZGWHTRCFPX-UHFFFAOYSA-N

>  <parent_smiles>
Cc1cccc(C(C)(C)C)c1O

>  <smiles>
CC1=CC=CC(=C1O)C(C)(C)C

>  <MODEL_molID>
mol000013

>  <MODEL_CAS>
128-39-2

>  <MODEL_name>
2,6-Di-tert-butylphenol

>  <MODEL_activity>
na

>  <MODEL_SMILES>
CC(C)(C)c1cccc(C(C)(C)C)c1O

>  <MODEL_InChI>
InChI=1S/C14H22O/c1-13(2,3)10-8-7-9-11(12(10)15)14(4,5)6/h7-9,15H,1-6H3

>  <MODEL_AMW>
206.329

>  <MODEL_InChIkey>
DKCPKDPYUFEZCP-UHFFFAOYSA-N

>  <MODEL_parent_SMILES>
CC(C)(C)c1cccc(C(C)(C)C)c1O

>  <MODEL_parent_InChI>
InChI=1S/C14H22O/c1-13(2,3)10-8-7-9-11(12(10)15)14(4,5)6/h7-9,15H,1-6H3

>  <MODEL_parent_InChIkey>
DKCPKDPYUFEZCP-UHFFFAOYSA-N

>  <MODEL_parent_AMW>
206.329

>  <MODEL_UniChem>
18

>  <MODEL_UniChem_wide>
376

>  <MODEL_heavy_atoms>
15

>  <MODEL_rotatable_bonds>
0

>  <MODEL_aromatic_rings>
1

>  <MODEL_AlogP>
3.9872

>  <MODEL_PSA>
20.23

>  <MODEL_HBA>
1

>  <MODEL_HBD>
1

>  <MODEL_QED_weighted>
0.656446366

>  <MODEL_Lipinski_violations>
0

>  <MODEL_RO3_pass>
0

>  <MODEL_NETCHARGE>
-0.0002045

>  <MODEL_ABUNDANCE>
99.98% at pH 7.4

>  <similarity>
0.727272727273

$$$$

     RDKit          3D

 13 12  0  0  0  0  0  0  0  0999 V2000
    6.0950   -0.1357    0.3360 C   0  0  0  0  0  0  0  0  0  0  0  0
    4.8838    0.5565   -0.2925 C   0  0  0  0  0  0  0  0  0  0  0  0
    3.5999   -0.0048    0.3219 C   0  0  0  0  0  0  0  0  0  0  0  0
    2.3888    0.6874   -0.3066 C   0  0  0  0  0  0  0  0  0  0  0  0
    1.1049    0.1261    0.3078 C   0  0  0  0  0  0  0  0  0  0  0  0
   -0.1062    0.8183   -0.3207 C   0  0  0  0  0  0  0  0  0  0  0  0
   -1.3901    0.2570    0.2937 C   0  0  0  0  0  0  0  0  0  0  0  0
   -2.5941    1.0342   -0.2423 C   0  0  0  0  0  0  0  0  0  0  0  0
   -3.8645    0.5574    0.4645 C   0  0  0  0  0  0  0  0  0  0  0  0
   -5.0686    1.3345   -0.0715 C   0  0  0  0  0  0  0  0  0  0  0  0
   -1.5279   -1.1982   -0.0728 C   0  0  0  0  0  0  0  0  0  0  0  0
   -2.5863   -1.9017    0.3591 O   0  0  0  0  0  0  0  0  0  0  0  0
   -0.6857   -1.7317   -0.7553 O   0  0  0  0  0  0  0  0  0  0  0  0
  1  2  1  0
  2  3  1  0
  3  4  1  0
  4  5  1  0
  5  6  1  0
  6  7  1  0
  7  8  1  0
  7 11  1  0
  8  9  1  0
  9 10  1  0
 11 12  1  0
 11 13  2  0
M  CHG  1  12  -1
M  END
>  <ABUNDANCE>
99.58% at pH 7.4

>  <NETCHARGE>
-0.9958

>  <ToxCast_chid>
48841

>  <inchi>
InChI=1S/C11H22O2/c1-3-5-6-7-9-10(8-4-2)11(12)13/h10H,3-9H2,1-2H3,(H,12,13)/t10-/m1/s1

>  <parent_inchi>
InChI=1S/C11H22O2/c1-3-5-6-7-9-10(8-4-2)11(12)13/h10H,3-9H2,1-2H3,(H,12,13)/t10-/m1/s1

>  <parent_inchikey>
YCYMCMYLORLIJX-SNVBAGLBSA-N

>  <parent_smiles>
CCCCCC[C@@H](CCC)C(=O)O

>  <smiles>
CCCCCC[C@@H](CCC)C(O)=O

>  <MODEL_molID>
mol000023

>  <MODEL_CAS>
31080-39-4

>  <MODEL_name>
2-Propylheptanoic acid

>  <MODEL_activity>
probably positive

>  <MODEL_SMILES>
CCCCCC(CCC)C(=O)O

>  <MODEL_InChI>
InChI=1S/C10H20O2/c1-3-5-6-8-9(7-4-2)10(11)12/h9H,3-8H2,1-2H3,(H,11,12)

>  <MODEL_AMW>
172.268

>  <MODEL_InChIkey>
RXGPYPPCEXISOV-UHFFFAOYSA-N

>  <MODEL_parent_SMILES>
CCCCCC(CCC)C(=O)O

>  <MODEL_parent_InChI>
InChI=1S/C10H20O2/c1-3-5-6-8-9(7-4-2)10(11)12/h9H,3-8H2,1-2H3,(H,11,12)

>  <MODEL_parent_InChIkey>
RXGPYPPCEXISOV-UHFFFAOYSA-N

>  <MODEL_parent_AMW>
172.268

>  <MODEL_UniChem>
8

>  <MODEL_UniChem_wide>
41

>  <MODEL_heavy_atoms>
12

>  <MODEL_rotatable_bonds>
7

>  <MODEL_aromatic_rings>
0

>  <MODEL_AlogP>
3.0676

>  <MODEL_PSA>
37.3

>  <MODEL_HBA>
1

>  <MODEL_HBD>
1

>  <MODEL_QED_weighted>
0.5920051643

>  <MODEL_Lipinski_violations>
0

>  <MODEL_RO3_pass>
0

>  <MODEL_NETCHARGE>
-0.9958

>  <MODEL_ABUNDANCE>
99.58% at pH 7.4

>  <similarity>
0.95652173913

$$$$
